REMARK  Name = ../refined-set-2016/3gcu/3gcu_pocket.pdb
REMARK  279 active torsions:
REMARK  status: ('A' for Active; 'I' for Inactive)
REMARK    1  A    between atoms: _2  and  _3
REMARK    2  A    between atoms: _8  and  _10
REMARK    3  A    between atoms: _10  and  _11
REMARK    4  A    between atoms: _10  and  _13
REMARK    5  A    between atoms: _16  and  _18
REMARK    6  A    between atoms: _18  and  _19
REMARK    7  A    between atoms: _21  and  _23
REMARK    8  A    between atoms: _23  and  _24
REMARK    9  A    between atoms: _23  and  _26
REMARK   10  A    between atoms: _26  and  _27
REMARK   11  A    between atoms: _29  and  _31
REMARK   12  A    between atoms: _31  and  _32
REMARK   13  A    between atoms: _31  and  _34
REMARK   14  A    between atoms: _34  and  _35
REMARK   15  A    between atoms: _40  and  _41
REMARK   16  A    between atoms: _43  and  _45
REMARK   17  A    between atoms: _45  and  _46
REMARK   18  A    between atoms: _45  and  _48
REMARK   19  A    between atoms: _48  and  _49
REMARK   20  A    between atoms: _51  and  _53
REMARK   21  A    between atoms: _53  and  _54
REMARK   22  A    between atoms: _53  and  _56
REMARK   23  A    between atoms: _59  and  _61
REMARK   24  A    between atoms: _61  and  _62
REMARK   25  A    between atoms: _61  and  _64
REMARK   26  A    between atoms: _66  and  _68
REMARK   27  A    between atoms: _68  and  _69
REMARK   28  A    between atoms: _72  and  _74
REMARK   29  A    between atoms: _74  and  _75
REMARK   30  A    between atoms: _78  and  _80
REMARK   31  A    between atoms: _80  and  _81
REMARK   32  A    between atoms: _80  and  _83
REMARK   33  A    between atoms: _83  and  _84
REMARK   34  A    between atoms: _84  and  _85
REMARK   35  A    between atoms: _85  and  _86
REMARK   36  A    between atoms: _95  and  _97
REMARK   37  A    between atoms: _97  and  _98
REMARK   38  A    between atoms: _97  and  _100
REMARK   39  A    between atoms: _103  and  _105
REMARK   40  A    between atoms: _105  and  _106
REMARK   41  A    between atoms: _109  and  _111
REMARK   42  A    between atoms: _111  and  _112
REMARK   43  A    between atoms: _111  and  _114
REMARK   44  A    between atoms: _117  and  _119
REMARK   45  A    between atoms: _119  and  _120
REMARK   46  A    between atoms: _119  and  _122
REMARK   47  A    between atoms: _122  and  _123
REMARK   48  A    between atoms: _123  and  _124
REMARK   49  A    between atoms: _124  and  _125
REMARK   50  A    between atoms: _125  and  _126
REMARK   51  A    between atoms: _130  and  _132
REMARK   52  A    between atoms: _132  and  _133
REMARK   53  A    between atoms: _132  and  _135
REMARK   54  A    between atoms: _135  and  _136
REMARK   55  A    between atoms: _136  and  _137
REMARK   56  A    between atoms: _137  and  _138
REMARK   57  A    between atoms: _138  and  _139
REMARK   58  A    between atoms: _143  and  _145
REMARK   59  A    between atoms: _145  and  _146
REMARK   60  A    between atoms: _145  and  _148
REMARK   61  A    between atoms: _148  and  _149
REMARK   62  A    between atoms: _152  and  _154
REMARK   63  A    between atoms: _154  and  _155
REMARK   64  A    between atoms: _154  and  _157
REMARK   65  A    between atoms: _157  and  _158
REMARK   66  A    between atoms: _161  and  _163
REMARK   67  A    between atoms: _163  and  _164
REMARK   68  A    between atoms: _163  and  _166
REMARK   69  A    between atoms: _166  and  _167
REMARK   70  A    between atoms: _172  and  _174
REMARK   71  A    between atoms: _174  and  _175
REMARK   72  A    between atoms: _174  and  _177
REMARK   73  A    between atoms: _177  and  _178
REMARK   74  A    between atoms: _178  and  _179
REMARK   75  A    between atoms: _179  and  _180
REMARK   76  A    between atoms: _180  and  _181
REMARK   77  A    between atoms: _185  and  _187
REMARK   78  A    between atoms: _187  and  _188
REMARK   79  A    between atoms: _187  and  _190
REMARK   80  A    between atoms: _190  and  _191
REMARK   81  A    between atoms: _191  and  _192
REMARK   82  A    between atoms: _192  and  _193
REMARK   83  A    between atoms: _202  and  _204
REMARK   84  A    between atoms: _204  and  _205
REMARK   85  A    between atoms: _204  and  _207
REMARK   86  A    between atoms: _207  and  _208
REMARK   87  A    between atoms: _211  and  _213
REMARK   88  A    between atoms: _213  and  _214
REMARK   89  A    between atoms: _213  and  _216
REMARK   90  A    between atoms: _216  and  _217
REMARK   91  A    between atoms: _222  and  _223
REMARK   92  A    between atoms: _225  and  _227
REMARK   93  A    between atoms: _227  and  _228
REMARK   94  A    between atoms: _227  and  _230
REMARK   95  A    between atoms: _230  and  _231
REMARK   96  A    between atoms: _231  and  _232
REMARK   97  A    between atoms: _232  and  _233
REMARK   98  A    between atoms: _242  and  _244
REMARK   99  A    between atoms: _244  and  _245
REMARK  100  A    between atoms: _244  and  _247
REMARK  101  A    between atoms: _247  and  _248
REMARK  102  A    between atoms: _248  and  _249
REMARK  103  A    between atoms: _252  and  _254
REMARK  104  A    between atoms: _254  and  _255
REMARK  105  A    between atoms: _254  and  _257
REMARK  106  A    between atoms: _257  and  _258
REMARK  107  A    between atoms: _261  and  _263
REMARK  108  A    between atoms: _263  and  _264
REMARK  109  A    between atoms: _263  and  _266
REMARK  110  A    between atoms: _266  and  _267
REMARK  111  A    between atoms: _267  and  _268
REMARK  112  A    between atoms: _268  and  _269
REMARK  113  A    between atoms: _278  and  _280
REMARK  114  A    between atoms: _280  and  _281
REMARK  115  A    between atoms: _280  and  _283
REMARK  116  A    between atoms: _283  and  _284
REMARK  117  A    between atoms: _287  and  _289
REMARK  118  A    between atoms: _289  and  _290
REMARK  119  A    between atoms: _289  and  _292
REMARK  120  A    between atoms: _292  and  _293
REMARK  121  A    between atoms: _296  and  _298
REMARK  122  A    between atoms: _298  and  _299
REMARK  123  A    between atoms: _298  and  _301
REMARK  124  A    between atoms: _301  and  _302
REMARK  125  A    between atoms: _307  and  _309
REMARK  126  A    between atoms: _309  and  _310
REMARK  127  A    between atoms: _309  and  _312
REMARK  128  A    between atoms: _312  and  _313
REMARK  129  A    between atoms: _313  and  _314
REMARK  130  A    between atoms: _316  and  _318
REMARK  131  A    between atoms: _318  and  _319
REMARK  132  A    between atoms: _318  and  _321
REMARK  133  A    between atoms: _321  and  _322
REMARK  134  A    between atoms: _327  and  _329
REMARK  135  A    between atoms: _329  and  _330
REMARK  136  A    between atoms: _329  and  _332
REMARK  137  A    between atoms: _335  and  _337
REMARK  138  A    between atoms: _337  and  _338
REMARK  139  A    between atoms: _337  and  _340
REMARK  140  A    between atoms: _340  and  _341
REMARK  141  A    between atoms: _344  and  _346
REMARK  142  A    between atoms: _346  and  _347
REMARK  143  A    between atoms: _349  and  _351
REMARK  144  A    between atoms: _351  and  _352
REMARK  145  A    between atoms: _351  and  _354
REMARK  146  A    between atoms: _354  and  _355
REMARK  147  A    between atoms: _358  and  _360
REMARK  148  A    between atoms: _360  and  _361
REMARK  149  A    between atoms: _360  and  _363
REMARK  150  A    between atoms: _363  and  _364
REMARK  151  A    between atoms: _367  and  _369
REMARK  152  A    between atoms: _369  and  _370
REMARK  153  A    between atoms: _369  and  _372
REMARK  154  A    between atoms: _372  and  _373
REMARK  155  A    between atoms: _376  and  _378
REMARK  156  A    between atoms: _378  and  _379
REMARK  157  A    between atoms: _378  and  _381
REMARK  158  A    between atoms: _381  and  _382
REMARK  159  A    between atoms: _387  and  _388
REMARK  160  A    between atoms: _390  and  _392
REMARK  161  A    between atoms: _392  and  _393
REMARK  162  A    between atoms: _392  and  _395
REMARK  163  A    between atoms: _395  and  _396
REMARK  164  A    between atoms: _399  and  _401
REMARK  165  A    between atoms: _401  and  _402
REMARK  166  A    between atoms: _401  and  _404
REMARK  167  A    between atoms: _407  and  _409
REMARK  168  A    between atoms: _409  and  _410
REMARK  169  A    between atoms: _409  and  _412
REMARK  170  A    between atoms: _412  and  _413
REMARK  171  A    between atoms: _416  and  _418
REMARK  172  A    between atoms: _418  and  _419
REMARK  173  A    between atoms: _418  and  _421
REMARK  174  A    between atoms: _421  and  _422
REMARK  175  A    between atoms: _427  and  _429
REMARK  176  A    between atoms: _429  and  _430
REMARK  177  A    between atoms: _429  and  _432
REMARK  178  A    between atoms: _432  and  _433
REMARK  179  A    between atoms: _436  and  _438
REMARK  180  A    between atoms: _438  and  _439
REMARK  181  A    between atoms: _438  and  _441
REMARK  182  A    between atoms: _441  and  _442
REMARK  183  A    between atoms: _442  and  _443
REMARK  184  A    between atoms: _445  and  _447
REMARK  185  A    between atoms: _447  and  _448
REMARK  186  A    between atoms: _450  and  _452
REMARK  187  A    between atoms: _452  and  _453
REMARK  188  A    between atoms: _456  and  _458
REMARK  189  A    between atoms: _458  and  _459
REMARK  190  A    between atoms: _458  and  _461
REMARK  191  A    between atoms: _461  and  _462
REMARK  192  A    between atoms: _465  and  _467
REMARK  193  A    between atoms: _467  and  _468
REMARK  194  A    between atoms: _467  and  _470
REMARK  195  A    between atoms: _470  and  _471
REMARK  196  A    between atoms: _476  and  _477
REMARK  197  A    between atoms: _479  and  _481
REMARK  198  A    between atoms: _481  and  _482
REMARK  199  A    between atoms: _481  and  _484
REMARK  200  A    between atoms: _484  and  _485
REMARK  201  A    between atoms: _488  and  _490
REMARK  202  A    between atoms: _490  and  _491
REMARK  203  A    between atoms: _490  and  _493
REMARK  204  A    between atoms: _493  and  _494
REMARK  205  A    between atoms: _497  and  _499
REMARK  206  A    between atoms: _499  and  _500
REMARK  207  A    between atoms: _499  and  _502
REMARK  208  A    between atoms: _502  and  _503
REMARK  209  A    between atoms: _506  and  _508
REMARK  210  A    between atoms: _508  and  _509
REMARK  211  A    between atoms: _508  and  _511
REMARK  212  A    between atoms: _511  and  _512
REMARK  213  A    between atoms: _517  and  _519
REMARK  214  A    between atoms: _519  and  _520
REMARK  215  A    between atoms: _519  and  _522
REMARK  216  A    between atoms: _522  and  _523
REMARK  217  A    between atoms: _523  and  _524
REMARK  218  A    between atoms: _524  and  _525
REMARK  219  A    between atoms: _534  and  _536
REMARK  220  A    between atoms: _536  and  _537
REMARK  221  A    between atoms: _536  and  _539
REMARK  222  A    between atoms: _539  and  _540
REMARK  223  A    between atoms: _543  and  _545
REMARK  224  A    between atoms: _545  and  _546
REMARK  225  A    between atoms: _545  and  _548
REMARK  226  A    between atoms: _548  and  _549
REMARK  227  A    between atoms: _552  and  _554
REMARK  228  A    between atoms: _554  and  _555
REMARK  229  A    between atoms: _554  and  _557
REMARK  230  A    between atoms: _557  and  _558
REMARK  231  A    between atoms: _563  and  _565
REMARK  232  A    between atoms: _565  and  _566
REMARK  233  A    between atoms: _565  and  _568
REMARK  234  A    between atoms: _568  and  _569
REMARK  235  A    between atoms: _572  and  _574
REMARK  236  A    between atoms: _574  and  _575
REMARK  237  A    between atoms: _578  and  _580
REMARK  238  A    between atoms: _580  and  _581
REMARK  239  A    between atoms: _580  and  _583
REMARK  240  A    between atoms: _583  and  _584
REMARK  241  A    between atoms: _584  and  _585
REMARK  242  A    between atoms: _585  and  _586
REMARK  243  A    between atoms: _586  and  _587
REMARK  244  A    between atoms: _591  and  _593
REMARK  245  A    between atoms: _593  and  _594
REMARK  246  A    between atoms: _593  and  _596
REMARK  247  A    between atoms: _596  and  _597
REMARK  248  A    between atoms: _600  and  _602
REMARK  249  A    between atoms: _602  and  _603
REMARK  250  A    between atoms: _602  and  _605
REMARK  251  A    between atoms: _605  and  _606
REMARK  252  A    between atoms: _609  and  _611
REMARK  253  A    between atoms: _611  and  _612
REMARK  254  A    between atoms: _611  and  _614
REMARK  255  A    between atoms: _614  and  _615
REMARK  256  A    between atoms: _618  and  _620
REMARK  257  A    between atoms: _620  and  _621
REMARK  258  A    between atoms: _620  and  _623
REMARK  259  A    between atoms: _623  and  _624
REMARK  260  A    between atoms: _630  and  _632
REMARK  261  A    between atoms: _632  and  _633
REMARK  262  A    between atoms: _635  and  _637
REMARK  263  A    between atoms: _637  and  _638
REMARK  264  A    between atoms: _637  and  _640
REMARK  265  A    between atoms: _640  and  _641
REMARK  266  A    between atoms: _644  and  _646
REMARK  267  A    between atoms: _646  and  _647
REMARK  268  A    between atoms: _646  and  _649
REMARK  269  A    between atoms: _649  and  _650
REMARK  270  A    between atoms: _653  and  _655
REMARK  271  A    between atoms: _655  and  _656
REMARK  272  A    between atoms: _655  and  _658
REMARK  273  A    between atoms: _658  and  _659
REMARK  274  A    between atoms: _664  and  _665
REMARK  275  A    between atoms: _667  and  _669
REMARK  276  A    between atoms: _669  and  _670
REMARK  277  A    between atoms: _669  and  _672
REMARK  278  A    between atoms: _672  and  _673
REMARK  279  A    between atoms: _673  and  _674
REMARK                            x       y       z     vdW  Elec       q    Type
REMARK                         _______ _______ _______ _____ _____    ______ ____
ROOT
ATOM      1  C   VAL A   2       8.800   7.206   0.155  0.00  0.00    +0.241 C 
ATOM      2  O   VAL A   2       9.992   7.459   0.406  0.00  0.00    -0.273 OA
ATOM      3  N   GLY A   3       8.381   6.749  -1.026  0.00  0.00    -0.295 N 
ATOM      4  H   GLY A   3       7.360   6.652  -1.200  0.00  0.00    +0.150 HD
ENDROOT
BRANCH   1   5
ATOM      5  CA  VAL A   2       7.741   7.403   1.233  0.00  0.00    +0.148 C 
BRANCH   5   8
ATOM      6  C   PRO A   1       5.370   7.705   0.859  0.00  0.00    +0.239 C 
ATOM      7  O   PRO A   1       5.420   8.897   1.203  0.00  0.00    -0.274 OA
ATOM      8  N   VAL A   2       6.433   6.915   0.819  0.00  0.00    -0.297 N 
ATOM      9  H   VAL A   2       6.332   5.934   0.488  0.00  0.00    +0.150 HD
BRANCH   6  14
ATOM     10  N   PRO A   1       2.993   7.430   1.420  0.00  0.00    -0.210 NA
ATOM     11  CD  PRO A   1       2.012   8.332   0.798  0.00  0.00    +0.089 C 
ATOM     12  CG  PRO A   1       2.111   7.958  -0.642  0.00  0.00    +0.021 C 
ATOM     13  CB  PRO A   1       3.538   7.633  -0.861  0.00  0.00    +0.028 C 
ATOM     14  CA  PRO A   1       4.047   7.068   0.480  0.00  0.00    +0.149 C 
ENDBRANCH   6  14
ENDBRANCH   5   8
BRANCH   5  15
ATOM     15  CB  VAL A   2       8.230   6.732   2.536  0.00  0.00    +0.027 C 
ATOM     16  CG2 VAL A   2       7.425   7.203   3.717  0.00  0.00    +0.002 C 
ATOM     17  CG1 VAL A   2       8.154   5.244   2.428  0.00  0.00    +0.002 C 
ENDBRANCH   5  15
ENDBRANCH   1   5
BRANCH   3  18
ATOM     18  CA  GLY A   3       9.326   6.380  -2.083  0.00  0.00    +0.176 C 
BRANCH  18  19
ATOM     19  C   GLY A   3       8.690   5.643  -3.240  0.00  0.00    +0.243 C 
ATOM     20  O   GLY A   3       7.738   4.892  -3.050  0.00  0.00    -0.273 OA
ATOM     21  N   SER A   4       9.230   5.848  -4.441  0.00  0.00    -0.296 N 
ATOM     22  H   SER A   4      10.117   6.388  -4.508  0.00  0.00    +0.150 HD
BRANCH  21  23
ATOM     23  CA  SER A   4       8.618   5.340  -5.665  0.00  0.00    +0.166 C 
BRANCH  23  24
ATOM     24  C   SER A   4       9.647   5.209  -6.793  0.00  0.00    +0.229 C 
ATOM     25  O   SER A   4      10.666   5.924  -6.814  0.00  0.00    -0.286 OA
ENDBRANCH  23  24
BRANCH  23  26
ATOM     26  CB  SER A   4       7.487   6.283  -6.086  0.00  0.00    +0.165 C 
BRANCH  26  27
ATOM     27  OG  SER A   4       6.528   5.647  -6.905  0.00  0.00    -0.380 OA
ATOM     28  H   SER A   4       5.821   6.296  -7.149  0.00  0.00    +0.211 HD
ENDBRANCH  26  27
ENDBRANCH  23  26
ENDBRANCH  21  23
ENDBRANCH  18  19
ENDBRANCH   3  18
TORSDOF 10
REMARK  Name = ../refined-set-2016/3gcu/3gcu_pocket.pdb
REMARK  279 active torsions:
REMARK  status: ('A' for Active; 'I' for Inactive)
REMARK    1  A    between atoms: _2  and  _3
REMARK    2  A    between atoms: _8  and  _10
REMARK    3  A    between atoms: _10  and  _11
REMARK    4  A    between atoms: _10  and  _13
REMARK    5  A    between atoms: _16  and  _18
REMARK    6  A    between atoms: _18  and  _19
REMARK    7  A    between atoms: _21  and  _23
REMARK    8  A    between atoms: _23  and  _24
REMARK    9  A    between atoms: _23  and  _26
REMARK   10  A    between atoms: _26  and  _27
REMARK   11  A    between atoms: _29  and  _31
REMARK   12  A    between atoms: _31  and  _32
REMARK   13  A    between atoms: _31  and  _34
REMARK   14  A    between atoms: _34  and  _35
REMARK   15  A    between atoms: _40  and  _41
REMARK   16  A    between atoms: _43  and  _45
REMARK   17  A    between atoms: _45  and  _46
REMARK   18  A    between atoms: _45  and  _48
REMARK   19  A    between atoms: _48  and  _49
REMARK   20  A    between atoms: _51  and  _53
REMARK   21  A    between atoms: _53  and  _54
REMARK   22  A    between atoms: _53  and  _56
REMARK   23  A    between atoms: _59  and  _61
REMARK   24  A    between atoms: _61  and  _62
REMARK   25  A    between atoms: _61  and  _64
REMARK   26  A    between atoms: _66  and  _68
REMARK   27  A    between atoms: _68  and  _69
REMARK   28  A    between atoms: _72  and  _74
REMARK   29  A    between atoms: _74  and  _75
REMARK   30  A    between atoms: _78  and  _80
REMARK   31  A    between atoms: _80  and  _81
REMARK   32  A    between atoms: _80  and  _83
REMARK   33  A    between atoms: _83  and  _84
REMARK   34  A    between atoms: _84  and  _85
REMARK   35  A    between atoms: _85  and  _86
REMARK   36  A    between atoms: _95  and  _97
REMARK   37  A    between atoms: _97  and  _98
REMARK   38  A    between atoms: _97  and  _100
REMARK   39  A    between atoms: _103  and  _105
REMARK   40  A    between atoms: _105  and  _106
REMARK   41  A    between atoms: _109  and  _111
REMARK   42  A    between atoms: _111  and  _112
REMARK   43  A    between atoms: _111  and  _114
REMARK   44  A    between atoms: _117  and  _119
REMARK   45  A    between atoms: _119  and  _120
REMARK   46  A    between atoms: _119  and  _122
REMARK   47  A    between atoms: _122  and  _123
REMARK   48  A    between atoms: _123  and  _124
REMARK   49  A    between atoms: _124  and  _125
REMARK   50  A    between atoms: _125  and  _126
REMARK   51  A    between atoms: _130  and  _132
REMARK   52  A    between atoms: _132  and  _133
REMARK   53  A    between atoms: _132  and  _135
REMARK   54  A    between atoms: _135  and  _136
REMARK   55  A    between atoms: _136  and  _137
REMARK   56  A    between atoms: _137  and  _138
REMARK   57  A    between atoms: _138  and  _139
REMARK   58  A    between atoms: _143  and  _145
REMARK   59  A    between atoms: _145  and  _146
REMARK   60  A    between atoms: _145  and  _148
REMARK   61  A    between atoms: _148  and  _149
REMARK   62  A    between atoms: _152  and  _154
REMARK   63  A    between atoms: _154  and  _155
REMARK   64  A    between atoms: _154  and  _157
REMARK   65  A    between atoms: _157  and  _158
REMARK   66  A    between atoms: _161  and  _163
REMARK   67  A    between atoms: _163  and  _164
REMARK   68  A    between atoms: _163  and  _166
REMARK   69  A    between atoms: _166  and  _167
REMARK   70  A    between atoms: _172  and  _174
REMARK   71  A    between atoms: _174  and  _175
REMARK   72  A    between atoms: _174  and  _177
REMARK   73  A    between atoms: _177  and  _178
REMARK   74  A    between atoms: _178  and  _179
REMARK   75  A    between atoms: _179  and  _180
REMARK   76  A    between atoms: _180  and  _181
REMARK   77  A    between atoms: _185  and  _187
REMARK   78  A    between atoms: _187  and  _188
REMARK   79  A    between atoms: _187  and  _190
REMARK   80  A    between atoms: _190  and  _191
REMARK   81  A    between atoms: _191  and  _192
REMARK   82  A    between atoms: _192  and  _193
REMARK   83  A    between atoms: _202  and  _204
REMARK   84  A    between atoms: _204  and  _205
REMARK   85  A    between atoms: _204  and  _207
REMARK   86  A    between atoms: _207  and  _208
REMARK   87  A    between atoms: _211  and  _213
REMARK   88  A    between atoms: _213  and  _214
REMARK   89  A    between atoms: _213  and  _216
REMARK   90  A    between atoms: _216  and  _217
REMARK   91  A    between atoms: _222  and  _223
REMARK   92  A    between atoms: _225  and  _227
REMARK   93  A    between atoms: _227  and  _228
REMARK   94  A    between atoms: _227  and  _230
REMARK   95  A    between atoms: _230  and  _231
REMARK   96  A    between atoms: _231  and  _232
REMARK   97  A    between atoms: _232  and  _233
REMARK   98  A    between atoms: _242  and  _244
REMARK   99  A    between atoms: _244  and  _245
REMARK  100  A    between atoms: _244  and  _247
REMARK  101  A    between atoms: _247  and  _248
REMARK  102  A    between atoms: _248  and  _249
REMARK  103  A    between atoms: _252  and  _254
REMARK  104  A    between atoms: _254  and  _255
REMARK  105  A    between atoms: _254  and  _257
REMARK  106  A    between atoms: _257  and  _258
REMARK  107  A    between atoms: _261  and  _263
REMARK  108  A    between atoms: _263  and  _264
REMARK  109  A    between atoms: _263  and  _266
REMARK  110  A    between atoms: _266  and  _267
REMARK  111  A    between atoms: _267  and  _268
REMARK  112  A    between atoms: _268  and  _269
REMARK  113  A    between atoms: _278  and  _280
REMARK  114  A    between atoms: _280  and  _281
REMARK  115  A    between atoms: _280  and  _283
REMARK  116  A    between atoms: _283  and  _284
REMARK  117  A    between atoms: _287  and  _289
REMARK  118  A    between atoms: _289  and  _290
REMARK  119  A    between atoms: _289  and  _292
REMARK  120  A    between atoms: _292  and  _293
REMARK  121  A    between atoms: _296  and  _298
REMARK  122  A    between atoms: _298  and  _299
REMARK  123  A    between atoms: _298  and  _301
REMARK  124  A    between atoms: _301  and  _302
REMARK  125  A    between atoms: _307  and  _309
REMARK  126  A    between atoms: _309  and  _310
REMARK  127  A    between atoms: _309  and  _312
REMARK  128  A    between atoms: _312  and  _313
REMARK  129  A    between atoms: _313  and  _314
REMARK  130  A    between atoms: _316  and  _318
REMARK  131  A    between atoms: _318  and  _319
REMARK  132  A    between atoms: _318  and  _321
REMARK  133  A    between atoms: _321  and  _322
REMARK  134  A    between atoms: _327  and  _329
REMARK  135  A    between atoms: _329  and  _330
REMARK  136  A    between atoms: _329  and  _332
REMARK  137  A    between atoms: _335  and  _337
REMARK  138  A    between atoms: _337  and  _338
REMARK  139  A    between atoms: _337  and  _340
REMARK  140  A    between atoms: _340  and  _341
REMARK  141  A    between atoms: _344  and  _346
REMARK  142  A    between atoms: _346  and  _347
REMARK  143  A    between atoms: _349  and  _351
REMARK  144  A    between atoms: _351  and  _352
REMARK  145  A    between atoms: _351  and  _354
REMARK  146  A    between atoms: _354  and  _355
REMARK  147  A    between atoms: _358  and  _360
REMARK  148  A    between atoms: _360  and  _361
REMARK  149  A    between atoms: _360  and  _363
REMARK  150  A    between atoms: _363  and  _364
REMARK  151  A    between atoms: _367  and  _369
REMARK  152  A    between atoms: _369  and  _370
REMARK  153  A    between atoms: _369  and  _372
REMARK  154  A    between atoms: _372  and  _373
REMARK  155  A    between atoms: _376  and  _378
REMARK  156  A    between atoms: _378  and  _379
REMARK  157  A    between atoms: _378  and  _381
REMARK  158  A    between atoms: _381  and  _382
REMARK  159  A    between atoms: _387  and  _388
REMARK  160  A    between atoms: _390  and  _392
REMARK  161  A    between atoms: _392  and  _393
REMARK  162  A    between atoms: _392  and  _395
REMARK  163  A    between atoms: _395  and  _396
REMARK  164  A    between atoms: _399  and  _401
REMARK  165  A    between atoms: _401  and  _402
REMARK  166  A    between atoms: _401  and  _404
REMARK  167  A    between atoms: _407  and  _409
REMARK  168  A    between atoms: _409  and  _410
REMARK  169  A    between atoms: _409  and  _412
REMARK  170  A    between atoms: _412  and  _413
REMARK  171  A    between atoms: _416  and  _418
REMARK  172  A    between atoms: _418  and  _419
REMARK  173  A    between atoms: _418  and  _421
REMARK  174  A    between atoms: _421  and  _422
REMARK  175  A    between atoms: _427  and  _429
REMARK  176  A    between atoms: _429  and  _430
REMARK  177  A    between atoms: _429  and  _432
REMARK  178  A    between atoms: _432  and  _433
REMARK  179  A    between atoms: _436  and  _438
REMARK  180  A    between atoms: _438  and  _439
REMARK  181  A    between atoms: _438  and  _441
REMARK  182  A    between atoms: _441  and  _442
REMARK  183  A    between atoms: _442  and  _443
REMARK  184  A    between atoms: _445  and  _447
REMARK  185  A    between atoms: _447  and  _448
REMARK  186  A    between atoms: _450  and  _452
REMARK  187  A    between atoms: _452  and  _453
REMARK  188  A    between atoms: _456  and  _458
REMARK  189  A    between atoms: _458  and  _459
REMARK  190  A    between atoms: _458  and  _461
REMARK  191  A    between atoms: _461  and  _462
REMARK  192  A    between atoms: _465  and  _467
REMARK  193  A    between atoms: _467  and  _468
REMARK  194  A    between atoms: _467  and  _470
REMARK  195  A    between atoms: _470  and  _471
REMARK  196  A    between atoms: _476  and  _477
REMARK  197  A    between atoms: _479  and  _481
REMARK  198  A    between atoms: _481  and  _482
REMARK  199  A    between atoms: _481  and  _484
REMARK  200  A    between atoms: _484  and  _485
REMARK  201  A    between atoms: _488  and  _490
REMARK  202  A    between atoms: _490  and  _491
REMARK  203  A    between atoms: _490  and  _493
REMARK  204  A    between atoms: _493  and  _494
REMARK  205  A    between atoms: _497  and  _499
REMARK  206  A    between atoms: _499  and  _500
REMARK  207  A    between atoms: _499  and  _502
REMARK  208  A    between atoms: _502  and  _503
REMARK  209  A    between atoms: _506  and  _508
REMARK  210  A    between atoms: _508  and  _509
REMARK  211  A    between atoms: _508  and  _511
REMARK  212  A    between atoms: _511  and  _512
REMARK  213  A    between atoms: _517  and  _519
REMARK  214  A    between atoms: _519  and  _520
REMARK  215  A    between atoms: _519  and  _522
REMARK  216  A    between atoms: _522  and  _523
REMARK  217  A    between atoms: _523  and  _524
REMARK  218  A    between atoms: _524  and  _525
REMARK  219  A    between atoms: _534  and  _536
REMARK  220  A    between atoms: _536  and  _537
REMARK  221  A    between atoms: _536  and  _539
REMARK  222  A    between atoms: _539  and  _540
REMARK  223  A    between atoms: _543  and  _545
REMARK  224  A    between atoms: _545  and  _546
REMARK  225  A    between atoms: _545  and  _548
REMARK  226  A    between atoms: _548  and  _549
REMARK  227  A    between atoms: _552  and  _554
REMARK  228  A    between atoms: _554  and  _555
REMARK  229  A    between atoms: _554  and  _557
REMARK  230  A    between atoms: _557  and  _558
REMARK  231  A    between atoms: _563  and  _565
REMARK  232  A    between atoms: _565  and  _566
REMARK  233  A    between atoms: _565  and  _568
REMARK  234  A    between atoms: _568  and  _569
REMARK  235  A    between atoms: _572  and  _574
REMARK  236  A    between atoms: _574  and  _575
REMARK  237  A    between atoms: _578  and  _580
REMARK  238  A    between atoms: _580  and  _581
REMARK  239  A    between atoms: _580  and  _583
REMARK  240  A    between atoms: _583  and  _584
REMARK  241  A    between atoms: _584  and  _585
REMARK  242  A    between atoms: _585  and  _586
REMARK  243  A    between atoms: _586  and  _587
REMARK  244  A    between atoms: _591  and  _593
REMARK  245  A    between atoms: _593  and  _594
REMARK  246  A    between atoms: _593  and  _596
REMARK  247  A    between atoms: _596  and  _597
REMARK  248  A    between atoms: _600  and  _602
REMARK  249  A    between atoms: _602  and  _603
REMARK  250  A    between atoms: _602  and  _605
REMARK  251  A    between atoms: _605  and  _606
REMARK  252  A    between atoms: _609  and  _611
REMARK  253  A    between atoms: _611  and  _612
REMARK  254  A    between atoms: _611  and  _614
REMARK  255  A    between atoms: _614  and  _615
REMARK  256  A    between atoms: _618  and  _620
REMARK  257  A    between atoms: _620  and  _621
REMARK  258  A    between atoms: _620  and  _623
REMARK  259  A    between atoms: _623  and  _624
REMARK  260  A    between atoms: _630  and  _632
REMARK  261  A    between atoms: _632  and  _633
REMARK  262  A    between atoms: _635  and  _637
REMARK  263  A    between atoms: _637  and  _638
REMARK  264  A    between atoms: _637  and  _640
REMARK  265  A    between atoms: _640  and  _641
REMARK  266  A    between atoms: _644  and  _646
REMARK  267  A    between atoms: _646  and  _647
REMARK  268  A    between atoms: _646  and  _649
REMARK  269  A    between atoms: _649  and  _650
REMARK  270  A    between atoms: _653  and  _655
REMARK  271  A    between atoms: _655  and  _656
REMARK  272  A    between atoms: _655  and  _658
REMARK  273  A    between atoms: _658  and  _659
REMARK  274  A    between atoms: _664  and  _665
REMARK  275  A    between atoms: _667  and  _669
REMARK  276  A    between atoms: _669  and  _670
REMARK  277  A    between atoms: _669  and  _672
REMARK  278  A    between atoms: _672  and  _673
REMARK  279  A    between atoms: _673  and  _674
REMARK                            x       y       z     vdW  Elec       q    Type
REMARK                         _______ _______ _______ _____ _____    ______ ____
ROOT
ATOM      1  CG  TYR A   1      13.779  -1.507  -9.194  0.00  0.00    -0.020 A 
ATOM      2  CD2 TYR A   1      14.545  -2.669  -9.306  0.00  0.00    -0.001 A 
ATOM      3  CE2 TYR A   1      15.701  -2.705 -10.117  0.00  0.00    +0.036 A 
ATOM      4  CZ  TYR A   1      16.084  -1.570 -10.823  0.00  0.00    +0.134 A 
ATOM      5  CE1 TYR A   1      15.334  -0.415 -10.731  0.00  0.00    +0.036 A 
ATOM      6  CD1 TYR A   1      14.189  -0.387  -9.916  0.00  0.00    -0.001 A 
ENDROOT
BRANCH   4   7
ATOM      7  OH  TYR A   1      17.214  -1.585 -11.623  0.00  0.00    -0.506 OA
ATOM      8  HH  TYR A   1      17.635  -2.480 -11.580  0.00  0.00    +0.292 HD
ENDBRANCH   4   7
BRANCH   1   9
ATOM      9  CB  TYR A   1      12.523  -1.471  -8.328  0.00  0.00    +0.051 C 
BRANCH   9  10
ATOM     10  CA  TYR A   1      11.212  -1.363  -9.127  0.00  0.00    +0.137 C 
BRANCH  10  11
ATOM     11  N   TYR A   1      11.187  -0.091  -9.873  0.00  0.00    -0.239 NA
ATOM     12  H   TYR A   1      11.752   0.704  -9.511  0.00  0.00    +0.142 HD
ENDBRANCH  10  11
BRANCH  10  13
ATOM     13  C   TYR A   1       9.992  -1.560  -8.190  0.00  0.00    +0.224 C 
ATOM     14  O   TYR A   1       9.597  -2.703  -7.887  0.00  0.00    -0.287 OA
ENDBRANCH  10  13
ENDBRANCH   9  10
ENDBRANCH   1   9
TORSDOF 5
REMARK  Name = ../refined-set-2016/3gcu/3gcu_pocket.pdb
REMARK  279 active torsions:
REMARK  status: ('A' for Active; 'I' for Inactive)
REMARK    1  A    between atoms: _2  and  _3
REMARK    2  A    between atoms: _8  and  _10
REMARK    3  A    between atoms: _10  and  _11
REMARK    4  A    between atoms: _10  and  _13
REMARK    5  A    between atoms: _16  and  _18
REMARK    6  A    between atoms: _18  and  _19
REMARK    7  A    between atoms: _21  and  _23
REMARK    8  A    between atoms: _23  and  _24
REMARK    9  A    between atoms: _23  and  _26
REMARK   10  A    between atoms: _26  and  _27
REMARK   11  A    between atoms: _29  and  _31
REMARK   12  A    between atoms: _31  and  _32
REMARK   13  A    between atoms: _31  and  _34
REMARK   14  A    between atoms: _34  and  _35
REMARK   15  A    between atoms: _40  and  _41
REMARK   16  A    between atoms: _43  and  _45
REMARK   17  A    between atoms: _45  and  _46
REMARK   18  A    between atoms: _45  and  _48
REMARK   19  A    between atoms: _48  and  _49
REMARK   20  A    between atoms: _51  and  _53
REMARK   21  A    between atoms: _53  and  _54
REMARK   22  A    between atoms: _53  and  _56
REMARK   23  A    between atoms: _59  and  _61
REMARK   24  A    between atoms: _61  and  _62
REMARK   25  A    between atoms: _61  and  _64
REMARK   26  A    between atoms: _66  and  _68
REMARK   27  A    between atoms: _68  and  _69
REMARK   28  A    between atoms: _72  and  _74
REMARK   29  A    between atoms: _74  and  _75
REMARK   30  A    between atoms: _78  and  _80
REMARK   31  A    between atoms: _80  and  _81
REMARK   32  A    between atoms: _80  and  _83
REMARK   33  A    between atoms: _83  and  _84
REMARK   34  A    between atoms: _84  and  _85
REMARK   35  A    between atoms: _85  and  _86
REMARK   36  A    between atoms: _95  and  _97
REMARK   37  A    between atoms: _97  and  _98
REMARK   38  A    between atoms: _97  and  _100
REMARK   39  A    between atoms: _103  and  _105
REMARK   40  A    between atoms: _105  and  _106
REMARK   41  A    between atoms: _109  and  _111
REMARK   42  A    between atoms: _111  and  _112
REMARK   43  A    between atoms: _111  and  _114
REMARK   44  A    between atoms: _117  and  _119
REMARK   45  A    between atoms: _119  and  _120
REMARK   46  A    between atoms: _119  and  _122
REMARK   47  A    between atoms: _122  and  _123
REMARK   48  A    between atoms: _123  and  _124
REMARK   49  A    between atoms: _124  and  _125
REMARK   50  A    between atoms: _125  and  _126
REMARK   51  A    between atoms: _130  and  _132
REMARK   52  A    between atoms: _132  and  _133
REMARK   53  A    between atoms: _132  and  _135
REMARK   54  A    between atoms: _135  and  _136
REMARK   55  A    between atoms: _136  and  _137
REMARK   56  A    between atoms: _137  and  _138
REMARK   57  A    between atoms: _138  and  _139
REMARK   58  A    between atoms: _143  and  _145
REMARK   59  A    between atoms: _145  and  _146
REMARK   60  A    between atoms: _145  and  _148
REMARK   61  A    between atoms: _148  and  _149
REMARK   62  A    between atoms: _152  and  _154
REMARK   63  A    between atoms: _154  and  _155
REMARK   64  A    between atoms: _154  and  _157
REMARK   65  A    between atoms: _157  and  _158
REMARK   66  A    between atoms: _161  and  _163
REMARK   67  A    between atoms: _163  and  _164
REMARK   68  A    between atoms: _163  and  _166
REMARK   69  A    between atoms: _166  and  _167
REMARK   70  A    between atoms: _172  and  _174
REMARK   71  A    between atoms: _174  and  _175
REMARK   72  A    between atoms: _174  and  _177
REMARK   73  A    between atoms: _177  and  _178
REMARK   74  A    between atoms: _178  and  _179
REMARK   75  A    between atoms: _179  and  _180
REMARK   76  A    between atoms: _180  and  _181
REMARK   77  A    between atoms: _185  and  _187
REMARK   78  A    between atoms: _187  and  _188
REMARK   79  A    between atoms: _187  and  _190
REMARK   80  A    between atoms: _190  and  _191
REMARK   81  A    between atoms: _191  and  _192
REMARK   82  A    between atoms: _192  and  _193
REMARK   83  A    between atoms: _202  and  _204
REMARK   84  A    between atoms: _204  and  _205
REMARK   85  A    between atoms: _204  and  _207
REMARK   86  A    between atoms: _207  and  _208
REMARK   87  A    between atoms: _211  and  _213
REMARK   88  A    between atoms: _213  and  _214
REMARK   89  A    between atoms: _213  and  _216
REMARK   90  A    between atoms: _216  and  _217
REMARK   91  A    between atoms: _222  and  _223
REMARK   92  A    between atoms: _225  and  _227
REMARK   93  A    between atoms: _227  and  _228
REMARK   94  A    between atoms: _227  and  _230
REMARK   95  A    between atoms: _230  and  _231
REMARK   96  A    between atoms: _231  and  _232
REMARK   97  A    between atoms: _232  and  _233
REMARK   98  A    between atoms: _242  and  _244
REMARK   99  A    between atoms: _244  and  _245
REMARK  100  A    between atoms: _244  and  _247
REMARK  101  A    between atoms: _247  and  _248
REMARK  102  A    between atoms: _248  and  _249
REMARK  103  A    between atoms: _252  and  _254
REMARK  104  A    between atoms: _254  and  _255
REMARK  105  A    between atoms: _254  and  _257
REMARK  106  A    between atoms: _257  and  _258
REMARK  107  A    between atoms: _261  and  _263
REMARK  108  A    between atoms: _263  and  _264
REMARK  109  A    between atoms: _263  and  _266
REMARK  110  A    between atoms: _266  and  _267
REMARK  111  A    between atoms: _267  and  _268
REMARK  112  A    between atoms: _268  and  _269
REMARK  113  A    between atoms: _278  and  _280
REMARK  114  A    between atoms: _280  and  _281
REMARK  115  A    between atoms: _280  and  _283
REMARK  116  A    between atoms: _283  and  _284
REMARK  117  A    between atoms: _287  and  _289
REMARK  118  A    between atoms: _289  and  _290
REMARK  119  A    between atoms: _289  and  _292
REMARK  120  A    between atoms: _292  and  _293
REMARK  121  A    between atoms: _296  and  _298
REMARK  122  A    between atoms: _298  and  _299
REMARK  123  A    between atoms: _298  and  _301
REMARK  124  A    between atoms: _301  and  _302
REMARK  125  A    between atoms: _307  and  _309
REMARK  126  A    between atoms: _309  and  _310
REMARK  127  A    between atoms: _309  and  _312
REMARK  128  A    between atoms: _312  and  _313
REMARK  129  A    between atoms: _313  and  _314
REMARK  130  A    between atoms: _316  and  _318
REMARK  131  A    between atoms: _318  and  _319
REMARK  132  A    between atoms: _318  and  _321
REMARK  133  A    between atoms: _321  and  _322
REMARK  134  A    between atoms: _327  and  _329
REMARK  135  A    between atoms: _329  and  _330
REMARK  136  A    between atoms: _329  and  _332
REMARK  137  A    between atoms: _335  and  _337
REMARK  138  A    between atoms: _337  and  _338
REMARK  139  A    between atoms: _337  and  _340
REMARK  140  A    between atoms: _340  and  _341
REMARK  141  A    between atoms: _344  and  _346
REMARK  142  A    between atoms: _346  and  _347
REMARK  143  A    between atoms: _349  and  _351
REMARK  144  A    between atoms: _351  and  _352
REMARK  145  A    between atoms: _351  and  _354
REMARK  146  A    between atoms: _354  and  _355
REMARK  147  A    between atoms: _358  and  _360
REMARK  148  A    between atoms: _360  and  _361
REMARK  149  A    between atoms: _360  and  _363
REMARK  150  A    between atoms: _363  and  _364
REMARK  151  A    between atoms: _367  and  _369
REMARK  152  A    between atoms: _369  and  _370
REMARK  153  A    between atoms: _369  and  _372
REMARK  154  A    between atoms: _372  and  _373
REMARK  155  A    between atoms: _376  and  _378
REMARK  156  A    between atoms: _378  and  _379
REMARK  157  A    between atoms: _378  and  _381
REMARK  158  A    between atoms: _381  and  _382
REMARK  159  A    between atoms: _387  and  _388
REMARK  160  A    between atoms: _390  and  _392
REMARK  161  A    between atoms: _392  and  _393
REMARK  162  A    between atoms: _392  and  _395
REMARK  163  A    between atoms: _395  and  _396
REMARK  164  A    between atoms: _399  and  _401
REMARK  165  A    between atoms: _401  and  _402
REMARK  166  A    between atoms: _401  and  _404
REMARK  167  A    between atoms: _407  and  _409
REMARK  168  A    between atoms: _409  and  _410
REMARK  169  A    between atoms: _409  and  _412
REMARK  170  A    between atoms: _412  and  _413
REMARK  171  A    between atoms: _416  and  _418
REMARK  172  A    between atoms: _418  and  _419
REMARK  173  A    between atoms: _418  and  _421
REMARK  174  A    between atoms: _421  and  _422
REMARK  175  A    between atoms: _427  and  _429
REMARK  176  A    between atoms: _429  and  _430
REMARK  177  A    between atoms: _429  and  _432
REMARK  178  A    between atoms: _432  and  _433
REMARK  179  A    between atoms: _436  and  _438
REMARK  180  A    between atoms: _438  and  _439
REMARK  181  A    between atoms: _438  and  _441
REMARK  182  A    between atoms: _441  and  _442
REMARK  183  A    between atoms: _442  and  _443
REMARK  184  A    between atoms: _445  and  _447
REMARK  185  A    between atoms: _447  and  _448
REMARK  186  A    between atoms: _450  and  _452
REMARK  187  A    between atoms: _452  and  _453
REMARK  188  A    between atoms: _456  and  _458
REMARK  189  A    between atoms: _458  and  _459
REMARK  190  A    between atoms: _458  and  _461
REMARK  191  A    between atoms: _461  and  _462
REMARK  192  A    between atoms: _465  and  _467
REMARK  193  A    between atoms: _467  and  _468
REMARK  194  A    between atoms: _467  and  _470
REMARK  195  A    between atoms: _470  and  _471
REMARK  196  A    between atoms: _476  and  _477
REMARK  197  A    between atoms: _479  and  _481
REMARK  198  A    between atoms: _481  and  _482
REMARK  199  A    between atoms: _481  and  _484
REMARK  200  A    between atoms: _484  and  _485
REMARK  201  A    between atoms: _488  and  _490
REMARK  202  A    between atoms: _490  and  _491
REMARK  203  A    between atoms: _490  and  _493
REMARK  204  A    between atoms: _493  and  _494
REMARK  205  A    between atoms: _497  and  _499
REMARK  206  A    between atoms: _499  and  _500
REMARK  207  A    between atoms: _499  and  _502
REMARK  208  A    between atoms: _502  and  _503
REMARK  209  A    between atoms: _506  and  _508
REMARK  210  A    between atoms: _508  and  _509
REMARK  211  A    between atoms: _508  and  _511
REMARK  212  A    between atoms: _511  and  _512
REMARK  213  A    between atoms: _517  and  _519
REMARK  214  A    between atoms: _519  and  _520
REMARK  215  A    between atoms: _519  and  _522
REMARK  216  A    between atoms: _522  and  _523
REMARK  217  A    between atoms: _523  and  _524
REMARK  218  A    between atoms: _524  and  _525
REMARK  219  A    between atoms: _534  and  _536
REMARK  220  A    between atoms: _536  and  _537
REMARK  221  A    between atoms: _536  and  _539
REMARK  222  A    between atoms: _539  and  _540
REMARK  223  A    between atoms: _543  and  _545
REMARK  224  A    between atoms: _545  and  _546
REMARK  225  A    between atoms: _545  and  _548
REMARK  226  A    between atoms: _548  and  _549
REMARK  227  A    between atoms: _552  and  _554
REMARK  228  A    between atoms: _554  and  _555
REMARK  229  A    between atoms: _554  and  _557
REMARK  230  A    between atoms: _557  and  _558
REMARK  231  A    between atoms: _563  and  _565
REMARK  232  A    between atoms: _565  and  _566
REMARK  233  A    between atoms: _565  and  _568
REMARK  234  A    between atoms: _568  and  _569
REMARK  235  A    between atoms: _572  and  _574
REMARK  236  A    between atoms: _574  and  _575
REMARK  237  A    between atoms: _578  and  _580
REMARK  238  A    between atoms: _580  and  _581
REMARK  239  A    between atoms: _580  and  _583
REMARK  240  A    between atoms: _583  and  _584
REMARK  241  A    between atoms: _584  and  _585
REMARK  242  A    between atoms: _585  and  _586
REMARK  243  A    between atoms: _586  and  _587
REMARK  244  A    between atoms: _591  and  _593
REMARK  245  A    between atoms: _593  and  _594
REMARK  246  A    between atoms: _593  and  _596
REMARK  247  A    between atoms: _596  and  _597
REMARK  248  A    between atoms: _600  and  _602
REMARK  249  A    between atoms: _602  and  _603
REMARK  250  A    between atoms: _602  and  _605
REMARK  251  A    between atoms: _605  and  _606
REMARK  252  A    between atoms: _609  and  _611
REMARK  253  A    between atoms: _611  and  _612
REMARK  254  A    between atoms: _611  and  _614
REMARK  255  A    between atoms: _614  and  _615
REMARK  256  A    between atoms: _618  and  _620
REMARK  257  A    between atoms: _620  and  _621
REMARK  258  A    between atoms: _620  and  _623
REMARK  259  A    between atoms: _623  and  _624
REMARK  260  A    between atoms: _630  and  _632
REMARK  261  A    between atoms: _632  and  _633
REMARK  262  A    between atoms: _635  and  _637
REMARK  263  A    between atoms: _637  and  _638
REMARK  264  A    between atoms: _637  and  _640
REMARK  265  A    between atoms: _640  and  _641
REMARK  266  A    between atoms: _644  and  _646
REMARK  267  A    between atoms: _646  and  _647
REMARK  268  A    between atoms: _646  and  _649
REMARK  269  A    between atoms: _649  and  _650
REMARK  270  A    between atoms: _653  and  _655
REMARK  271  A    between atoms: _655  and  _656
REMARK  272  A    between atoms: _655  and  _658
REMARK  273  A    between atoms: _658  and  _659
REMARK  274  A    between atoms: _664  and  _665
REMARK  275  A    between atoms: _667  and  _669
REMARK  276  A    between atoms: _669  and  _670
REMARK  277  A    between atoms: _669  and  _672
REMARK  278  A    between atoms: _672  and  _673
REMARK  279  A    between atoms: _673  and  _674
REMARK                            x       y       z     vdW  Elec       q    Type
REMARK                         _______ _______ _______ _____ _____    ______ ____
ROOT
ATOM      1  C   VAL A   2       6.049   3.115   0.159  0.00  0.00    +0.241 C 
ATOM      2  N   CYS A   3       5.257   2.597   1.093  0.00  0.00    -0.296 N 
ATOM      3  H   CYS A   3       5.170   1.562   1.139  0.00  0.00    +0.150 HD
ATOM      4  O   VAL A   2       6.062   4.315  -0.136  0.00  0.00    -0.273 OA
ENDROOT
BRANCH   1   5
ATOM      5  CA  VAL A   2       6.950   2.112  -0.574  0.00  0.00    +0.148 C 
BRANCH   5   7
ATOM      6  C   SER A   1       6.593   1.516  -2.931  0.00  0.00    +0.241 C 
ATOM      7  N   VAL A   2       6.934   2.404  -2.000  0.00  0.00    -0.297 N 
ATOM      8  H   VAL A   2       7.204   3.360  -2.309  0.00  0.00    +0.150 HD
ATOM      9  O   SER A   1       6.173   0.380  -2.677  0.00  0.00    -0.274 OA
BRANCH   6  10
ATOM     10  CA  SER A   1       6.706   2.007  -4.380  0.00  0.00    +0.174 C 
BRANCH  10  11
ATOM     11  N   SER A   1       7.050   0.865  -5.222  0.00  0.00    -0.236 NA
ATOM     12  H   SER A   1       6.461   0.011  -5.150  0.00  0.00    +0.142 HD
ENDBRANCH  10  11
BRANCH  10  13
ATOM     13  CB  SER A   1       5.355   2.607  -4.790  0.00  0.00    +0.163 C 
BRANCH  13  14
ATOM     14  OG  SER A   1       5.079   2.400  -6.173  0.00  0.00    -0.380 OA
ATOM     15  H   SER A   1       5.058   1.428  -6.362  0.00  0.00    +0.211 HD
ENDBRANCH  13  14
ENDBRANCH  10  13
ENDBRANCH   6  10
ENDBRANCH   5   7
BRANCH   5  16
ATOM     16  CB  VAL A   2       8.405   2.128  -0.007  0.00  0.00    +0.027 C 
ATOM     17  CG2 VAL A   2       8.433   1.910   1.518  0.00  0.00    +0.002 C 
ATOM     18  CG1 VAL A   2       9.285   1.022  -0.686  0.00  0.00    +0.002 C 
ENDBRANCH   5  16
ENDBRANCH   1   5
BRANCH   2  19
ATOM     19  CA  CYS A   3       4.500   3.392   2.061  0.00  0.00    +0.160 C 
BRANCH  19  20
ATOM     20  C   CYS A   3       4.944   3.050   3.476  0.00  0.00    +0.242 C 
ATOM     21  N   ALA A   4       5.118   4.076   4.308  0.00  0.00    -0.297 N 
ATOM     22  H   ALA A   4       5.206   5.035   3.916  0.00  0.00    +0.150 HD
ATOM     23  O   CYS A   3       5.148   1.871   3.804  0.00  0.00    -0.273 OA
BRANCH  21  24
ATOM     24  CA  ALA A   4       5.188   3.891   5.756  0.00  0.00    +0.149 C 
ATOM     25  CB  ALA A   4       5.668   5.173   6.438  0.00  0.00    +0.031 C 
BRANCH  24  26
ATOM     26  C   ALA A   4       3.770   3.525   6.219  0.00  0.00    +0.241 C 
ATOM     27  N   ALA A   5       3.667   2.742   7.292  0.00  0.00    -0.298 N 
ATOM     28  H   ALA A   5       4.536   2.406   7.755  0.00  0.00    +0.150 HD
ATOM     29  O   ALA A   4       2.781   3.947   5.601  0.00  0.00    -0.273 OA
BRANCH  27  30
ATOM     30  CA  ALA A   5       2.356   2.334   7.847  0.00  0.00    +0.137 C 
ATOM     31  CB  ALA A   5       1.728   1.151   7.036  0.00  0.00    +0.030 C 
BRANCH  30  32
ATOM     32  C   ALA A   5       2.476   1.966   9.317  0.00  0.00    +0.227 C 
ATOM     33  O   ALA A   5       3.571   1.868   9.853  0.00  0.00    -0.286 OA
ENDBRANCH  30  32
ENDBRANCH  27  30
ENDBRANCH  24  26
ENDBRANCH  21  24
ENDBRANCH  19  20
BRANCH  19  34
ATOM     34  CB  CYS A   3       3.032   3.051   1.962  0.00  0.00    +0.098 C 
ATOM     35  SG  CYS A   3       2.209   3.839   0.583  0.00  0.00    -0.080 S 
ENDBRANCH  19  34
ENDBRANCH   2  19
TORSDOF 14
REMARK  Name = ../refined-set-2016/3gcu/3gcu_pocket.pdb
REMARK  279 active torsions:
REMARK  status: ('A' for Active; 'I' for Inactive)
REMARK    1  A    between atoms: _2  and  _3
REMARK    2  A    between atoms: _8  and  _10
REMARK    3  A    between atoms: _10  and  _11
REMARK    4  A    between atoms: _10  and  _13
REMARK    5  A    between atoms: _16  and  _18
REMARK    6  A    between atoms: _18  and  _19
REMARK    7  A    between atoms: _21  and  _23
REMARK    8  A    between atoms: _23  and  _24
REMARK    9  A    between atoms: _23  and  _26
REMARK   10  A    between atoms: _26  and  _27
REMARK   11  A    between atoms: _29  and  _31
REMARK   12  A    between atoms: _31  and  _32
REMARK   13  A    between atoms: _31  and  _34
REMARK   14  A    between atoms: _34  and  _35
REMARK   15  A    between atoms: _40  and  _41
REMARK   16  A    between atoms: _43  and  _45
REMARK   17  A    between atoms: _45  and  _46
REMARK   18  A    between atoms: _45  and  _48
REMARK   19  A    between atoms: _48  and  _49
REMARK   20  A    between atoms: _51  and  _53
REMARK   21  A    between atoms: _53  and  _54
REMARK   22  A    between atoms: _53  and  _56
REMARK   23  A    between atoms: _59  and  _61
REMARK   24  A    between atoms: _61  and  _62
REMARK   25  A    between atoms: _61  and  _64
REMARK   26  A    between atoms: _66  and  _68
REMARK   27  A    between atoms: _68  and  _69
REMARK   28  A    between atoms: _72  and  _74
REMARK   29  A    between atoms: _74  and  _75
REMARK   30  A    between atoms: _78  and  _80
REMARK   31  A    between atoms: _80  and  _81
REMARK   32  A    between atoms: _80  and  _83
REMARK   33  A    between atoms: _83  and  _84
REMARK   34  A    between atoms: _84  and  _85
REMARK   35  A    between atoms: _85  and  _86
REMARK   36  A    between atoms: _95  and  _97
REMARK   37  A    between atoms: _97  and  _98
REMARK   38  A    between atoms: _97  and  _100
REMARK   39  A    between atoms: _103  and  _105
REMARK   40  A    between atoms: _105  and  _106
REMARK   41  A    between atoms: _109  and  _111
REMARK   42  A    between atoms: _111  and  _112
REMARK   43  A    between atoms: _111  and  _114
REMARK   44  A    between atoms: _117  and  _119
REMARK   45  A    between atoms: _119  and  _120
REMARK   46  A    between atoms: _119  and  _122
REMARK   47  A    between atoms: _122  and  _123
REMARK   48  A    between atoms: _123  and  _124
REMARK   49  A    between atoms: _124  and  _125
REMARK   50  A    between atoms: _125  and  _126
REMARK   51  A    between atoms: _130  and  _132
REMARK   52  A    between atoms: _132  and  _133
REMARK   53  A    between atoms: _132  and  _135
REMARK   54  A    between atoms: _135  and  _136
REMARK   55  A    between atoms: _136  and  _137
REMARK   56  A    between atoms: _137  and  _138
REMARK   57  A    between atoms: _138  and  _139
REMARK   58  A    between atoms: _143  and  _145
REMARK   59  A    between atoms: _145  and  _146
REMARK   60  A    between atoms: _145  and  _148
REMARK   61  A    between atoms: _148  and  _149
REMARK   62  A    between atoms: _152  and  _154
REMARK   63  A    between atoms: _154  and  _155
REMARK   64  A    between atoms: _154  and  _157
REMARK   65  A    between atoms: _157  and  _158
REMARK   66  A    between atoms: _161  and  _163
REMARK   67  A    between atoms: _163  and  _164
REMARK   68  A    between atoms: _163  and  _166
REMARK   69  A    between atoms: _166  and  _167
REMARK   70  A    between atoms: _172  and  _174
REMARK   71  A    between atoms: _174  and  _175
REMARK   72  A    between atoms: _174  and  _177
REMARK   73  A    between atoms: _177  and  _178
REMARK   74  A    between atoms: _178  and  _179
REMARK   75  A    between atoms: _179  and  _180
REMARK   76  A    between atoms: _180  and  _181
REMARK   77  A    between atoms: _185  and  _187
REMARK   78  A    between atoms: _187  and  _188
REMARK   79  A    between atoms: _187  and  _190
REMARK   80  A    between atoms: _190  and  _191
REMARK   81  A    between atoms: _191  and  _192
REMARK   82  A    between atoms: _192  and  _193
REMARK   83  A    between atoms: _202  and  _204
REMARK   84  A    between atoms: _204  and  _205
REMARK   85  A    between atoms: _204  and  _207
REMARK   86  A    between atoms: _207  and  _208
REMARK   87  A    between atoms: _211  and  _213
REMARK   88  A    between atoms: _213  and  _214
REMARK   89  A    between atoms: _213  and  _216
REMARK   90  A    between atoms: _216  and  _217
REMARK   91  A    between atoms: _222  and  _223
REMARK   92  A    between atoms: _225  and  _227
REMARK   93  A    between atoms: _227  and  _228
REMARK   94  A    between atoms: _227  and  _230
REMARK   95  A    between atoms: _230  and  _231
REMARK   96  A    between atoms: _231  and  _232
REMARK   97  A    between atoms: _232  and  _233
REMARK   98  A    between atoms: _242  and  _244
REMARK   99  A    between atoms: _244  and  _245
REMARK  100  A    between atoms: _244  and  _247
REMARK  101  A    between atoms: _247  and  _248
REMARK  102  A    between atoms: _248  and  _249
REMARK  103  A    between atoms: _252  and  _254
REMARK  104  A    between atoms: _254  and  _255
REMARK  105  A    between atoms: _254  and  _257
REMARK  106  A    between atoms: _257  and  _258
REMARK  107  A    between atoms: _261  and  _263
REMARK  108  A    between atoms: _263  and  _264
REMARK  109  A    between atoms: _263  and  _266
REMARK  110  A    between atoms: _266  and  _267
REMARK  111  A    between atoms: _267  and  _268
REMARK  112  A    between atoms: _268  and  _269
REMARK  113  A    between atoms: _278  and  _280
REMARK  114  A    between atoms: _280  and  _281
REMARK  115  A    between atoms: _280  and  _283
REMARK  116  A    between atoms: _283  and  _284
REMARK  117  A    between atoms: _287  and  _289
REMARK  118  A    between atoms: _289  and  _290
REMARK  119  A    between atoms: _289  and  _292
REMARK  120  A    between atoms: _292  and  _293
REMARK  121  A    between atoms: _296  and  _298
REMARK  122  A    between atoms: _298  and  _299
REMARK  123  A    between atoms: _298  and  _301
REMARK  124  A    between atoms: _301  and  _302
REMARK  125  A    between atoms: _307  and  _309
REMARK  126  A    between atoms: _309  and  _310
REMARK  127  A    between atoms: _309  and  _312
REMARK  128  A    between atoms: _312  and  _313
REMARK  129  A    between atoms: _313  and  _314
REMARK  130  A    between atoms: _316  and  _318
REMARK  131  A    between atoms: _318  and  _319
REMARK  132  A    between atoms: _318  and  _321
REMARK  133  A    between atoms: _321  and  _322
REMARK  134  A    between atoms: _327  and  _329
REMARK  135  A    between atoms: _329  and  _330
REMARK  136  A    between atoms: _329  and  _332
REMARK  137  A    between atoms: _335  and  _337
REMARK  138  A    between atoms: _337  and  _338
REMARK  139  A    between atoms: _337  and  _340
REMARK  140  A    between atoms: _340  and  _341
REMARK  141  A    between atoms: _344  and  _346
REMARK  142  A    between atoms: _346  and  _347
REMARK  143  A    between atoms: _349  and  _351
REMARK  144  A    between atoms: _351  and  _352
REMARK  145  A    between atoms: _351  and  _354
REMARK  146  A    between atoms: _354  and  _355
REMARK  147  A    between atoms: _358  and  _360
REMARK  148  A    between atoms: _360  and  _361
REMARK  149  A    between atoms: _360  and  _363
REMARK  150  A    between atoms: _363  and  _364
REMARK  151  A    between atoms: _367  and  _369
REMARK  152  A    between atoms: _369  and  _370
REMARK  153  A    between atoms: _369  and  _372
REMARK  154  A    between atoms: _372  and  _373
REMARK  155  A    between atoms: _376  and  _378
REMARK  156  A    between atoms: _378  and  _379
REMARK  157  A    between atoms: _378  and  _381
REMARK  158  A    between atoms: _381  and  _382
REMARK  159  A    between atoms: _387  and  _388
REMARK  160  A    between atoms: _390  and  _392
REMARK  161  A    between atoms: _392  and  _393
REMARK  162  A    between atoms: _392  and  _395
REMARK  163  A    between atoms: _395  and  _396
REMARK  164  A    between atoms: _399  and  _401
REMARK  165  A    between atoms: _401  and  _402
REMARK  166  A    between atoms: _401  and  _404
REMARK  167  A    between atoms: _407  and  _409
REMARK  168  A    between atoms: _409  and  _410
REMARK  169  A    between atoms: _409  and  _412
REMARK  170  A    between atoms: _412  and  _413
REMARK  171  A    between atoms: _416  and  _418
REMARK  172  A    between atoms: _418  and  _419
REMARK  173  A    between atoms: _418  and  _421
REMARK  174  A    between atoms: _421  and  _422
REMARK  175  A    between atoms: _427  and  _429
REMARK  176  A    between atoms: _429  and  _430
REMARK  177  A    between atoms: _429  and  _432
REMARK  178  A    between atoms: _432  and  _433
REMARK  179  A    between atoms: _436  and  _438
REMARK  180  A    between atoms: _438  and  _439
REMARK  181  A    between atoms: _438  and  _441
REMARK  182  A    between atoms: _441  and  _442
REMARK  183  A    between atoms: _442  and  _443
REMARK  184  A    between atoms: _445  and  _447
REMARK  185  A    between atoms: _447  and  _448
REMARK  186  A    between atoms: _450  and  _452
REMARK  187  A    between atoms: _452  and  _453
REMARK  188  A    between atoms: _456  and  _458
REMARK  189  A    between atoms: _458  and  _459
REMARK  190  A    between atoms: _458  and  _461
REMARK  191  A    between atoms: _461  and  _462
REMARK  192  A    between atoms: _465  and  _467
REMARK  193  A    between atoms: _467  and  _468
REMARK  194  A    between atoms: _467  and  _470
REMARK  195  A    between atoms: _470  and  _471
REMARK  196  A    between atoms: _476  and  _477
REMARK  197  A    between atoms: _479  and  _481
REMARK  198  A    between atoms: _481  and  _482
REMARK  199  A    between atoms: _481  and  _484
REMARK  200  A    between atoms: _484  and  _485
REMARK  201  A    between atoms: _488  and  _490
REMARK  202  A    between atoms: _490  and  _491
REMARK  203  A    between atoms: _490  and  _493
REMARK  204  A    between atoms: _493  and  _494
REMARK  205  A    between atoms: _497  and  _499
REMARK  206  A    between atoms: _499  and  _500
REMARK  207  A    between atoms: _499  and  _502
REMARK  208  A    between atoms: _502  and  _503
REMARK  209  A    between atoms: _506  and  _508
REMARK  210  A    between atoms: _508  and  _509
REMARK  211  A    between atoms: _508  and  _511
REMARK  212  A    between atoms: _511  and  _512
REMARK  213  A    between atoms: _517  and  _519
REMARK  214  A    between atoms: _519  and  _520
REMARK  215  A    between atoms: _519  and  _522
REMARK  216  A    between atoms: _522  and  _523
REMARK  217  A    between atoms: _523  and  _524
REMARK  218  A    between atoms: _524  and  _525
REMARK  219  A    between atoms: _534  and  _536
REMARK  220  A    between atoms: _536  and  _537
REMARK  221  A    between atoms: _536  and  _539
REMARK  222  A    between atoms: _539  and  _540
REMARK  223  A    between atoms: _543  and  _545
REMARK  224  A    between atoms: _545  and  _546
REMARK  225  A    between atoms: _545  and  _548
REMARK  226  A    between atoms: _548  and  _549
REMARK  227  A    between atoms: _552  and  _554
REMARK  228  A    between atoms: _554  and  _555
REMARK  229  A    between atoms: _554  and  _557
REMARK  230  A    between atoms: _557  and  _558
REMARK  231  A    between atoms: _563  and  _565
REMARK  232  A    between atoms: _565  and  _566
REMARK  233  A    between atoms: _565  and  _568
REMARK  234  A    between atoms: _568  and  _569
REMARK  235  A    between atoms: _572  and  _574
REMARK  236  A    between atoms: _574  and  _575
REMARK  237  A    between atoms: _578  and  _580
REMARK  238  A    between atoms: _580  and  _581
REMARK  239  A    between atoms: _580  and  _583
REMARK  240  A    between atoms: _583  and  _584
REMARK  241  A    between atoms: _584  and  _585
REMARK  242  A    between atoms: _585  and  _586
REMARK  243  A    between atoms: _586  and  _587
REMARK  244  A    between atoms: _591  and  _593
REMARK  245  A    between atoms: _593  and  _594
REMARK  246  A    between atoms: _593  and  _596
REMARK  247  A    between atoms: _596  and  _597
REMARK  248  A    between atoms: _600  and  _602
REMARK  249  A    between atoms: _602  and  _603
REMARK  250  A    between atoms: _602  and  _605
REMARK  251  A    between atoms: _605  and  _606
REMARK  252  A    between atoms: _609  and  _611
REMARK  253  A    between atoms: _611  and  _612
REMARK  254  A    between atoms: _611  and  _614
REMARK  255  A    between atoms: _614  and  _615
REMARK  256  A    between atoms: _618  and  _620
REMARK  257  A    between atoms: _620  and  _621
REMARK  258  A    between atoms: _620  and  _623
REMARK  259  A    between atoms: _623  and  _624
REMARK  260  A    between atoms: _630  and  _632
REMARK  261  A    between atoms: _632  and  _633
REMARK  262  A    between atoms: _635  and  _637
REMARK  263  A    between atoms: _637  and  _638
REMARK  264  A    between atoms: _637  and  _640
REMARK  265  A    between atoms: _640  and  _641
REMARK  266  A    between atoms: _644  and  _646
REMARK  267  A    between atoms: _646  and  _647
REMARK  268  A    between atoms: _646  and  _649
REMARK  269  A    between atoms: _649  and  _650
REMARK  270  A    between atoms: _653  and  _655
REMARK  271  A    between atoms: _655  and  _656
REMARK  272  A    between atoms: _655  and  _658
REMARK  273  A    between atoms: _658  and  _659
REMARK  274  A    between atoms: _664  and  _665
REMARK  275  A    between atoms: _667  and  _669
REMARK  276  A    between atoms: _669  and  _670
REMARK  277  A    between atoms: _669  and  _672
REMARK  278  A    between atoms: _672  and  _673
REMARK  279  A    between atoms: _673  and  _674
REMARK                            x       y       z     vdW  Elec       q    Type
REMARK                         _______ _______ _______ _____ _____    ______ ____
ROOT
ATOM      1  CA  VAL A   4       5.172  -1.756   2.801  0.00  0.00    +0.149 C 
ENDROOT
BRANCH   1   4
ATOM      2  C   ALA A   3       6.810  -1.279   4.584  0.00  0.00    +0.241 C 
ATOM      3  O   ALA A   3       7.128  -2.463   4.716  0.00  0.00    -0.273 OA
ATOM      4  N   VAL A   4       5.882  -0.850   3.727  0.00  0.00    -0.297 N 
ATOM      5  H   VAL A   4       5.649   0.163   3.710  0.00  0.00    +0.150 HD
BRANCH   2   6
ATOM      6  CA  ALA A   3       7.489  -0.224   5.420  0.00  0.00    +0.149 C 
ATOM      7  CB  ALA A   3       8.918  -0.049   4.967  0.00  0.00    +0.031 C 
BRANCH   6  10
ATOM      8  C   VAL A   2       6.628  -0.042   7.718  0.00  0.00    +0.241 C 
ATOM      9  O   VAL A   2       6.071   1.053   7.532  0.00  0.00    -0.273 OA
ATOM     10  N   ALA A   3       7.421  -0.643   6.825  0.00  0.00    -0.297 N 
ATOM     11  H   ALA A   3       8.013  -1.439   7.138  0.00  0.00    +0.150 HD
BRANCH   8  12
ATOM     12  CA  VAL A   2       6.442  -0.786   9.029  0.00  0.00    +0.148 C 
BRANCH  12  15
ATOM     13  C   ARG A   1       6.509   0.224  11.237  0.00  0.00    +0.238 C 
ATOM     14  O   ARG A   1       7.591  -0.302  11.496  0.00  0.00    -0.274 OA
ATOM     15  N   VAL A   2       5.912   0.085  10.060  0.00  0.00    -0.297 N 
ATOM     16  H   VAL A   2       5.038   0.616   9.871  0.00  0.00    +0.150 HD
BRANCH  13  17
ATOM     17  CA  ARG A   1       5.786   1.116  12.270  0.00  0.00    +0.145 C 
BRANCH  17  18
ATOM     18  N   ARG A   1       5.734   0.427  13.561  0.00  0.00    -0.238 NA
ATOM     19  H   ARG A   1       6.360   0.748  14.327  0.00  0.00    +0.142 HD
ENDBRANCH  17  18
BRANCH  17  20
ATOM     20  CB  ARG A   1       6.516   2.455  12.417  0.00  0.00    +0.030 C 
BRANCH  20  21
ATOM     21  CG  ARG A   1       5.943   3.386  13.496  0.00  0.00    +0.045 C 
BRANCH  21  22
ATOM     22  CD  ARG A   1       6.179   4.841  13.113  0.00  0.00    +0.174 C 
BRANCH  22  23
ATOM     23  NE  ARG A   1       6.427   5.701  14.274  0.00  0.00    -0.265 N 
ATOM     24  CZ  ARG A   1       5.491   6.137  15.120  0.00  0.00    +0.342 C 
ATOM     25  NH2 ARG A   1       5.844   6.920  16.135  0.00  0.00    -0.292 N 
ATOM     26 HH21 ARG A   1       5.123   7.266  16.800  0.00  0.00    +0.255 HD
ATOM     27 HH22 ARG A   1       6.841   7.187  16.264  0.00  0.00    +0.255 HD
ATOM     28  NH1 ARG A   1       4.208   5.795  14.963  0.00  0.00    -0.292 N 
ATOM     29 HH11 ARG A   1       3.491   6.144  15.631  0.00  0.00    +0.255 HD
ATOM     30 HH12 ARG A   1       3.927   5.180  14.173  0.00  0.00    +0.255 HD
ATOM     31  HE  ARG A   1       7.409   5.994  14.452  0.00  0.00    +0.259 HD
ENDBRANCH  22  23
ENDBRANCH  21  22
ENDBRANCH  20  21
ENDBRANCH  17  20
ENDBRANCH  13  17
ENDBRANCH  12  15
BRANCH  12  32
ATOM     32  CB  VAL A   2       5.522  -2.005   8.790  0.00  0.00    +0.027 C 
ATOM     33  CG2 VAL A   2       5.436  -2.869  10.038  0.00  0.00    +0.002 C 
ATOM     34  CG1 VAL A   2       4.120  -1.560   8.340  0.00  0.00    +0.002 C 
ENDBRANCH  12  32
ENDBRANCH   8  12
ENDBRANCH   6  10
ENDBRANCH   2   6
ENDBRANCH   1   4
BRANCH   1  35
ATOM     35  C   VAL A   4       5.591  -1.395   1.376  0.00  0.00    +0.241 C 
ATOM     36  O   VAL A   4       5.337  -0.275   0.906  0.00  0.00    -0.273 OA
ATOM     37  N   LYS A   5       6.277  -2.327   0.720  0.00  0.00    -0.297 N 
ATOM     38  H   LYS A   5       6.459  -3.233   1.198  0.00  0.00    +0.150 HD
BRANCH  37  39
ATOM     39  CA  LYS A   5       6.785  -2.146  -0.629  0.00  0.00    +0.149 C 
BRANCH  39  40
ATOM     40  C   LYS A   5       5.909  -2.956  -1.603  0.00  0.00    +0.241 C 
ATOM     41  O   LYS A   5       5.871  -4.189  -1.536  0.00  0.00    -0.273 OA
ATOM     42  N   LYS A   6       5.182  -2.252  -2.465  0.00  0.00    -0.297 N 
ATOM     43  H   LYS A   6       5.139  -1.218  -2.358  0.00  0.00    +0.150 HD
BRANCH  42  44
ATOM     44  CA  LYS A   6       4.448  -2.875  -3.548  0.00  0.00    +0.149 C 
BRANCH  44  45
ATOM     45  C   LYS A   6       5.366  -2.973  -4.772  0.00  0.00    +0.241 C 
ATOM     46  N   LEU A   7       5.684  -4.189  -5.191  0.00  0.00    -0.298 N 
ATOM     47  H   LEU A   7       5.349  -5.015  -4.655  0.00  0.00    +0.150 HD
ATOM     48  O   LYS A   6       5.756  -1.961  -5.335  0.00  0.00    -0.273 OA
BRANCH  46  49
ATOM     49  CA  LEU A   7       6.495  -4.397  -6.390  0.00  0.00    +0.137 C 
BRANCH  49  50
ATOM     50  C   LEU A   7       5.789  -3.881  -7.637  0.00  0.00    +0.227 C 
ATOM     51  O   LEU A   7       4.582  -4.055  -7.785  0.00  0.00    -0.286 OA
ENDBRANCH  49  50
BRANCH  49  52
ATOM     52  CB  LEU A   7       6.835  -5.872  -6.559  0.00  0.00    +0.028 C 
BRANCH  52  53
ATOM     53  CG  LEU A   7       7.559  -6.553  -5.405  0.00  0.00    +0.002 C 
ATOM     54  CD2 LEU A   7       8.771  -5.732  -4.955  0.00  0.00    +0.000 C 
ATOM     55  CD1 LEU A   7       7.968  -7.932  -5.853  0.00  0.00    +0.000 C 
ENDBRANCH  52  53
ENDBRANCH  49  52
ENDBRANCH  46  49
ENDBRANCH  44  45
BRANCH  44  56
ATOM     56  CB  LYS A   6       3.214  -2.039  -3.908  0.00  0.00    +0.029 C 
BRANCH  56  57
ATOM     57  CG  LYS A   6       2.273  -2.727  -4.875  0.00  0.00    +0.000 C 
BRANCH  57  58
ATOM     58  CD  LYS A   6       1.291  -1.730  -5.478  0.00  0.00    -0.024 C 
BRANCH  58  59
ATOM     59  CE  LYS A   6       0.449  -2.419  -6.545  0.00  0.00    -0.086 C 
BRANCH  59  60
ATOM     60  NZ  LYS A   6      -0.397  -1.417  -7.262  0.00  0.00    +0.380 N 
ATOM     61  HZ1 LYS A   6      -1.027  -0.947  -6.581  0.00  0.00    -0.089 HD
ATOM     62  HZ2 LYS A   6       0.215  -0.709  -7.715  0.00  0.00    -0.089 HD
ATOM     63  HZ3 LYS A   6      -0.966  -1.900  -7.986  0.00  0.00    -0.089 HD
ENDBRANCH  59  60
ENDBRANCH  58  59
ENDBRANCH  57  58
ENDBRANCH  56  57
ENDBRANCH  44  56
ENDBRANCH  42  44
ENDBRANCH  39  40
BRANCH  39  64
ATOM     64  CB  LYS A   5       8.243  -2.622  -0.700  0.00  0.00    +0.029 C 
BRANCH  64  65
ATOM     65  CG  LYS A   5       8.919  -2.520  -2.084  0.00  0.00    +0.000 C 
BRANCH  65  66
ATOM     66  CD  LYS A   5      10.350  -3.108  -2.044  0.00  0.00    -0.024 C 
BRANCH  66  67
ATOM     67  CE  LYS A   5      10.900  -3.224  -3.417  0.00  0.00    -0.086 C 
BRANCH  67  68
ATOM     68  NZ  LYS A   5      12.356  -3.534  -3.377  0.00  0.00    +0.380 N 
ATOM     69  HZ1 LYS A   5      12.858  -2.773  -2.877  0.00  0.00    -0.089 HD
ATOM     70  HZ2 LYS A   5      12.504  -4.434  -2.878  0.00  0.00    -0.089 HD
ATOM     71  HZ3 LYS A   5      12.720  -3.611  -4.348  0.00  0.00    -0.089 HD
ENDBRANCH  67  68
ENDBRANCH  66  67
ENDBRANCH  65  66
ENDBRANCH  64  65
ENDBRANCH  39  64
ENDBRANCH  37  39
ENDBRANCH   1  35
BRANCH   1  72
ATOM     72  CB  VAL A   4       3.627  -1.652   2.952  0.00  0.00    +0.027 C 
ATOM     73  CG2 VAL A   4       3.221  -1.727   4.416  0.00  0.00    +0.002 C 
ATOM     74  CG1 VAL A   4       2.896  -2.755   2.105  0.00  0.00    +0.002 C 
ENDBRANCH   1  72
TORSDOF 32
REMARK  Name = ../refined-set-2016/3gcu/3gcu_pocket.pdb
REMARK  279 active torsions:
REMARK  status: ('A' for Active; 'I' for Inactive)
REMARK    1  A    between atoms: _2  and  _3
REMARK    2  A    between atoms: _8  and  _10
REMARK    3  A    between atoms: _10  and  _11
REMARK    4  A    between atoms: _10  and  _13
REMARK    5  A    between atoms: _16  and  _18
REMARK    6  A    between atoms: _18  and  _19
REMARK    7  A    between atoms: _21  and  _23
REMARK    8  A    between atoms: _23  and  _24
REMARK    9  A    between atoms: _23  and  _26
REMARK   10  A    between atoms: _26  and  _27
REMARK   11  A    between atoms: _29  and  _31
REMARK   12  A    between atoms: _31  and  _32
REMARK   13  A    between atoms: _31  and  _34
REMARK   14  A    between atoms: _34  and  _35
REMARK   15  A    between atoms: _40  and  _41
REMARK   16  A    between atoms: _43  and  _45
REMARK   17  A    between atoms: _45  and  _46
REMARK   18  A    between atoms: _45  and  _48
REMARK   19  A    between atoms: _48  and  _49
REMARK   20  A    between atoms: _51  and  _53
REMARK   21  A    between atoms: _53  and  _54
REMARK   22  A    between atoms: _53  and  _56
REMARK   23  A    between atoms: _59  and  _61
REMARK   24  A    between atoms: _61  and  _62
REMARK   25  A    between atoms: _61  and  _64
REMARK   26  A    between atoms: _66  and  _68
REMARK   27  A    between atoms: _68  and  _69
REMARK   28  A    between atoms: _72  and  _74
REMARK   29  A    between atoms: _74  and  _75
REMARK   30  A    between atoms: _78  and  _80
REMARK   31  A    between atoms: _80  and  _81
REMARK   32  A    between atoms: _80  and  _83
REMARK   33  A    between atoms: _83  and  _84
REMARK   34  A    between atoms: _84  and  _85
REMARK   35  A    between atoms: _85  and  _86
REMARK   36  A    between atoms: _95  and  _97
REMARK   37  A    between atoms: _97  and  _98
REMARK   38  A    between atoms: _97  and  _100
REMARK   39  A    between atoms: _103  and  _105
REMARK   40  A    between atoms: _105  and  _106
REMARK   41  A    between atoms: _109  and  _111
REMARK   42  A    between atoms: _111  and  _112
REMARK   43  A    between atoms: _111  and  _114
REMARK   44  A    between atoms: _117  and  _119
REMARK   45  A    between atoms: _119  and  _120
REMARK   46  A    between atoms: _119  and  _122
REMARK   47  A    between atoms: _122  and  _123
REMARK   48  A    between atoms: _123  and  _124
REMARK   49  A    between atoms: _124  and  _125
REMARK   50  A    between atoms: _125  and  _126
REMARK   51  A    between atoms: _130  and  _132
REMARK   52  A    between atoms: _132  and  _133
REMARK   53  A    between atoms: _132  and  _135
REMARK   54  A    between atoms: _135  and  _136
REMARK   55  A    between atoms: _136  and  _137
REMARK   56  A    between atoms: _137  and  _138
REMARK   57  A    between atoms: _138  and  _139
REMARK   58  A    between atoms: _143  and  _145
REMARK   59  A    between atoms: _145  and  _146
REMARK   60  A    between atoms: _145  and  _148
REMARK   61  A    between atoms: _148  and  _149
REMARK   62  A    between atoms: _152  and  _154
REMARK   63  A    between atoms: _154  and  _155
REMARK   64  A    between atoms: _154  and  _157
REMARK   65  A    between atoms: _157  and  _158
REMARK   66  A    between atoms: _161  and  _163
REMARK   67  A    between atoms: _163  and  _164
REMARK   68  A    between atoms: _163  and  _166
REMARK   69  A    between atoms: _166  and  _167
REMARK   70  A    between atoms: _172  and  _174
REMARK   71  A    between atoms: _174  and  _175
REMARK   72  A    between atoms: _174  and  _177
REMARK   73  A    between atoms: _177  and  _178
REMARK   74  A    between atoms: _178  and  _179
REMARK   75  A    between atoms: _179  and  _180
REMARK   76  A    between atoms: _180  and  _181
REMARK   77  A    between atoms: _185  and  _187
REMARK   78  A    between atoms: _187  and  _188
REMARK   79  A    between atoms: _187  and  _190
REMARK   80  A    between atoms: _190  and  _191
REMARK   81  A    between atoms: _191  and  _192
REMARK   82  A    between atoms: _192  and  _193
REMARK   83  A    between atoms: _202  and  _204
REMARK   84  A    between atoms: _204  and  _205
REMARK   85  A    between atoms: _204  and  _207
REMARK   86  A    between atoms: _207  and  _208
REMARK   87  A    between atoms: _211  and  _213
REMARK   88  A    between atoms: _213  and  _214
REMARK   89  A    between atoms: _213  and  _216
REMARK   90  A    between atoms: _216  and  _217
REMARK   91  A    between atoms: _222  and  _223
REMARK   92  A    between atoms: _225  and  _227
REMARK   93  A    between atoms: _227  and  _228
REMARK   94  A    between atoms: _227  and  _230
REMARK   95  A    between atoms: _230  and  _231
REMARK   96  A    between atoms: _231  and  _232
REMARK   97  A    between atoms: _232  and  _233
REMARK   98  A    between atoms: _242  and  _244
REMARK   99  A    between atoms: _244  and  _245
REMARK  100  A    between atoms: _244  and  _247
REMARK  101  A    between atoms: _247  and  _248
REMARK  102  A    between atoms: _248  and  _249
REMARK  103  A    between atoms: _252  and  _254
REMARK  104  A    between atoms: _254  and  _255
REMARK  105  A    between atoms: _254  and  _257
REMARK  106  A    between atoms: _257  and  _258
REMARK  107  A    between atoms: _261  and  _263
REMARK  108  A    between atoms: _263  and  _264
REMARK  109  A    between atoms: _263  and  _266
REMARK  110  A    between atoms: _266  and  _267
REMARK  111  A    between atoms: _267  and  _268
REMARK  112  A    between atoms: _268  and  _269
REMARK  113  A    between atoms: _278  and  _280
REMARK  114  A    between atoms: _280  and  _281
REMARK  115  A    between atoms: _280  and  _283
REMARK  116  A    between atoms: _283  and  _284
REMARK  117  A    between atoms: _287  and  _289
REMARK  118  A    between atoms: _289  and  _290
REMARK  119  A    between atoms: _289  and  _292
REMARK  120  A    between atoms: _292  and  _293
REMARK  121  A    between atoms: _296  and  _298
REMARK  122  A    between atoms: _298  and  _299
REMARK  123  A    between atoms: _298  and  _301
REMARK  124  A    between atoms: _301  and  _302
REMARK  125  A    between atoms: _307  and  _309
REMARK  126  A    between atoms: _309  and  _310
REMARK  127  A    between atoms: _309  and  _312
REMARK  128  A    between atoms: _312  and  _313
REMARK  129  A    between atoms: _313  and  _314
REMARK  130  A    between atoms: _316  and  _318
REMARK  131  A    between atoms: _318  and  _319
REMARK  132  A    between atoms: _318  and  _321
REMARK  133  A    between atoms: _321  and  _322
REMARK  134  A    between atoms: _327  and  _329
REMARK  135  A    between atoms: _329  and  _330
REMARK  136  A    between atoms: _329  and  _332
REMARK  137  A    between atoms: _335  and  _337
REMARK  138  A    between atoms: _337  and  _338
REMARK  139  A    between atoms: _337  and  _340
REMARK  140  A    between atoms: _340  and  _341
REMARK  141  A    between atoms: _344  and  _346
REMARK  142  A    between atoms: _346  and  _347
REMARK  143  A    between atoms: _349  and  _351
REMARK  144  A    between atoms: _351  and  _352
REMARK  145  A    between atoms: _351  and  _354
REMARK  146  A    between atoms: _354  and  _355
REMARK  147  A    between atoms: _358  and  _360
REMARK  148  A    between atoms: _360  and  _361
REMARK  149  A    between atoms: _360  and  _363
REMARK  150  A    between atoms: _363  and  _364
REMARK  151  A    between atoms: _367  and  _369
REMARK  152  A    between atoms: _369  and  _370
REMARK  153  A    between atoms: _369  and  _372
REMARK  154  A    between atoms: _372  and  _373
REMARK  155  A    between atoms: _376  and  _378
REMARK  156  A    between atoms: _378  and  _379
REMARK  157  A    between atoms: _378  and  _381
REMARK  158  A    between atoms: _381  and  _382
REMARK  159  A    between atoms: _387  and  _388
REMARK  160  A    between atoms: _390  and  _392
REMARK  161  A    between atoms: _392  and  _393
REMARK  162  A    between atoms: _392  and  _395
REMARK  163  A    between atoms: _395  and  _396
REMARK  164  A    between atoms: _399  and  _401
REMARK  165  A    between atoms: _401  and  _402
REMARK  166  A    between atoms: _401  and  _404
REMARK  167  A    between atoms: _407  and  _409
REMARK  168  A    between atoms: _409  and  _410
REMARK  169  A    between atoms: _409  and  _412
REMARK  170  A    between atoms: _412  and  _413
REMARK  171  A    between atoms: _416  and  _418
REMARK  172  A    between atoms: _418  and  _419
REMARK  173  A    between atoms: _418  and  _421
REMARK  174  A    between atoms: _421  and  _422
REMARK  175  A    between atoms: _427  and  _429
REMARK  176  A    between atoms: _429  and  _430
REMARK  177  A    between atoms: _429  and  _432
REMARK  178  A    between atoms: _432  and  _433
REMARK  179  A    between atoms: _436  and  _438
REMARK  180  A    between atoms: _438  and  _439
REMARK  181  A    between atoms: _438  and  _441
REMARK  182  A    between atoms: _441  and  _442
REMARK  183  A    between atoms: _442  and  _443
REMARK  184  A    between atoms: _445  and  _447
REMARK  185  A    between atoms: _447  and  _448
REMARK  186  A    between atoms: _450  and  _452
REMARK  187  A    between atoms: _452  and  _453
REMARK  188  A    between atoms: _456  and  _458
REMARK  189  A    between atoms: _458  and  _459
REMARK  190  A    between atoms: _458  and  _461
REMARK  191  A    between atoms: _461  and  _462
REMARK  192  A    between atoms: _465  and  _467
REMARK  193  A    between atoms: _467  and  _468
REMARK  194  A    between atoms: _467  and  _470
REMARK  195  A    between atoms: _470  and  _471
REMARK  196  A    between atoms: _476  and  _477
REMARK  197  A    between atoms: _479  and  _481
REMARK  198  A    between atoms: _481  and  _482
REMARK  199  A    between atoms: _481  and  _484
REMARK  200  A    between atoms: _484  and  _485
REMARK  201  A    between atoms: _488  and  _490
REMARK  202  A    between atoms: _490  and  _491
REMARK  203  A    between atoms: _490  and  _493
REMARK  204  A    between atoms: _493  and  _494
REMARK  205  A    between atoms: _497  and  _499
REMARK  206  A    between atoms: _499  and  _500
REMARK  207  A    between atoms: _499  and  _502
REMARK  208  A    between atoms: _502  and  _503
REMARK  209  A    between atoms: _506  and  _508
REMARK  210  A    between atoms: _508  and  _509
REMARK  211  A    between atoms: _508  and  _511
REMARK  212  A    between atoms: _511  and  _512
REMARK  213  A    between atoms: _517  and  _519
REMARK  214  A    between atoms: _519  and  _520
REMARK  215  A    between atoms: _519  and  _522
REMARK  216  A    between atoms: _522  and  _523
REMARK  217  A    between atoms: _523  and  _524
REMARK  218  A    between atoms: _524  and  _525
REMARK  219  A    between atoms: _534  and  _536
REMARK  220  A    between atoms: _536  and  _537
REMARK  221  A    between atoms: _536  and  _539
REMARK  222  A    between atoms: _539  and  _540
REMARK  223  A    between atoms: _543  and  _545
REMARK  224  A    between atoms: _545  and  _546
REMARK  225  A    between atoms: _545  and  _548
REMARK  226  A    between atoms: _548  and  _549
REMARK  227  A    between atoms: _552  and  _554
REMARK  228  A    between atoms: _554  and  _555
REMARK  229  A    between atoms: _554  and  _557
REMARK  230  A    between atoms: _557  and  _558
REMARK  231  A    between atoms: _563  and  _565
REMARK  232  A    between atoms: _565  and  _566
REMARK  233  A    between atoms: _565  and  _568
REMARK  234  A    between atoms: _568  and  _569
REMARK  235  A    between atoms: _572  and  _574
REMARK  236  A    between atoms: _574  and  _575
REMARK  237  A    between atoms: _578  and  _580
REMARK  238  A    between atoms: _580  and  _581
REMARK  239  A    between atoms: _580  and  _583
REMARK  240  A    between atoms: _583  and  _584
REMARK  241  A    between atoms: _584  and  _585
REMARK  242  A    between atoms: _585  and  _586
REMARK  243  A    between atoms: _586  and  _587
REMARK  244  A    between atoms: _591  and  _593
REMARK  245  A    between atoms: _593  and  _594
REMARK  246  A    between atoms: _593  and  _596
REMARK  247  A    between atoms: _596  and  _597
REMARK  248  A    between atoms: _600  and  _602
REMARK  249  A    between atoms: _602  and  _603
REMARK  250  A    between atoms: _602  and  _605
REMARK  251  A    between atoms: _605  and  _606
REMARK  252  A    between atoms: _609  and  _611
REMARK  253  A    between atoms: _611  and  _612
REMARK  254  A    between atoms: _611  and  _614
REMARK  255  A    between atoms: _614  and  _615
REMARK  256  A    between atoms: _618  and  _620
REMARK  257  A    between atoms: _620  and  _621
REMARK  258  A    between atoms: _620  and  _623
REMARK  259  A    between atoms: _623  and  _624
REMARK  260  A    between atoms: _630  and  _632
REMARK  261  A    between atoms: _632  and  _633
REMARK  262  A    between atoms: _635  and  _637
REMARK  263  A    between atoms: _637  and  _638
REMARK  264  A    between atoms: _637  and  _640
REMARK  265  A    between atoms: _640  and  _641
REMARK  266  A    between atoms: _644  and  _646
REMARK  267  A    between atoms: _646  and  _647
REMARK  268  A    between atoms: _646  and  _649
REMARK  269  A    between atoms: _649  and  _650
REMARK  270  A    between atoms: _653  and  _655
REMARK  271  A    between atoms: _655  and  _656
REMARK  272  A    between atoms: _655  and  _658
REMARK  273  A    between atoms: _658  and  _659
REMARK  274  A    between atoms: _664  and  _665
REMARK  275  A    between atoms: _667  and  _669
REMARK  276  A    between atoms: _669  and  _670
REMARK  277  A    between atoms: _669  and  _672
REMARK  278  A    between atoms: _672  and  _673
REMARK  279  A    between atoms: _673  and  _674
REMARK                            x       y       z     vdW  Elec       q    Type
REMARK                         _______ _______ _______ _____ _____    ______ ____
ROOT
ATOM      1  C   ILE A   1      12.524  -9.801 -14.672  0.00  0.00    +0.238 C 
ATOM      2  O   ILE A   1      13.071 -10.054 -13.615  0.00  0.00    -0.274 OA
ATOM      3  N   HIS A   2      11.383  -9.121 -14.772  0.00  0.00    -0.298 N 
ATOM      4  H   HIS A   2      11.040  -8.865 -15.720  0.00  0.00    +0.150 HD
ENDROOT
BRANCH   1   5
ATOM      5  CA  ILE A   1      13.188 -10.241 -15.971  0.00  0.00    +0.145 C 
BRANCH   5   6
ATOM      6  N   ILE A   1      12.253 -10.851 -16.882  0.00  0.00    -0.238 NA
ATOM      7  H   ILE A   1      12.077 -10.403 -17.804  0.00  0.00    +0.142 HD
ENDBRANCH   5   6
BRANCH   5   8
ATOM      8  CB  ILE A   1      13.964  -9.057 -16.619  0.00  0.00    +0.025 C 
ATOM      9  CG2 ILE A   1      14.628  -8.164 -15.557  0.00  0.00    +0.002 C 
BRANCH   8  10
ATOM     10  CG1 ILE A   1      15.059  -9.600 -17.535  0.00  0.00    +0.002 C 
ATOM     11  CD1 ILE A   1      16.136 -10.358 -16.771  0.00  0.00    +0.000 C 
ENDBRANCH   8  10
ENDBRANCH   5   8
ENDBRANCH   1   5
BRANCH   3  12
ATOM     12  CA  HIS A   2      10.585  -8.715 -13.606  0.00  0.00    +0.143 C 
BRANCH  12  13
ATOM     13  C   HIS A   2      10.119  -9.897 -12.786  0.00  0.00    +0.227 C 
ATOM     14  O   HIS A   2      10.231  -9.857 -11.561  0.00  0.00    -0.286 OA
ENDBRANCH  12  13
BRANCH  12  15
ATOM     15  CB  HIS A   2       9.370  -7.914 -14.024  0.00  0.00    +0.075 C 
BRANCH  15  16
ATOM     16  CG  HIS A   2       9.626  -6.447 -14.093  0.00  0.00    +0.082 A 
ATOM     17  ND1 HIS A   2       8.631  -5.512 -13.904  0.00  0.00    -0.227 NA
ATOM     18  CE1 HIS A   2       9.151  -4.298 -14.001  0.00  0.00    +0.199 A 
ATOM     19  NE2 HIS A   2      10.450  -4.415 -14.214  0.00  0.00    -0.221 NA
ATOM     20  CD2 HIS A   2      10.773  -5.749 -14.277  0.00  0.00    +0.115 A 
ENDBRANCH  15  16
ENDBRANCH  12  15
ENDBRANCH   3  12
TORSDOF 8
REMARK  Name = ../refined-set-2016/3gcu/3gcu_pocket.pdb
REMARK  279 active torsions:
REMARK  status: ('A' for Active; 'I' for Inactive)
REMARK    1  A    between atoms: _2  and  _3
REMARK    2  A    between atoms: _8  and  _10
REMARK    3  A    between atoms: _10  and  _11
REMARK    4  A    between atoms: _10  and  _13
REMARK    5  A    between atoms: _16  and  _18
REMARK    6  A    between atoms: _18  and  _19
REMARK    7  A    between atoms: _21  and  _23
REMARK    8  A    between atoms: _23  and  _24
REMARK    9  A    between atoms: _23  and  _26
REMARK   10  A    between atoms: _26  and  _27
REMARK   11  A    between atoms: _29  and  _31
REMARK   12  A    between atoms: _31  and  _32
REMARK   13  A    between atoms: _31  and  _34
REMARK   14  A    between atoms: _34  and  _35
REMARK   15  A    between atoms: _40  and  _41
REMARK   16  A    between atoms: _43  and  _45
REMARK   17  A    between atoms: _45  and  _46
REMARK   18  A    between atoms: _45  and  _48
REMARK   19  A    between atoms: _48  and  _49
REMARK   20  A    between atoms: _51  and  _53
REMARK   21  A    between atoms: _53  and  _54
REMARK   22  A    between atoms: _53  and  _56
REMARK   23  A    between atoms: _59  and  _61
REMARK   24  A    between atoms: _61  and  _62
REMARK   25  A    between atoms: _61  and  _64
REMARK   26  A    between atoms: _66  and  _68
REMARK   27  A    between atoms: _68  and  _69
REMARK   28  A    between atoms: _72  and  _74
REMARK   29  A    between atoms: _74  and  _75
REMARK   30  A    between atoms: _78  and  _80
REMARK   31  A    between atoms: _80  and  _81
REMARK   32  A    between atoms: _80  and  _83
REMARK   33  A    between atoms: _83  and  _84
REMARK   34  A    between atoms: _84  and  _85
REMARK   35  A    between atoms: _85  and  _86
REMARK   36  A    between atoms: _95  and  _97
REMARK   37  A    between atoms: _97  and  _98
REMARK   38  A    between atoms: _97  and  _100
REMARK   39  A    between atoms: _103  and  _105
REMARK   40  A    between atoms: _105  and  _106
REMARK   41  A    between atoms: _109  and  _111
REMARK   42  A    between atoms: _111  and  _112
REMARK   43  A    between atoms: _111  and  _114
REMARK   44  A    between atoms: _117  and  _119
REMARK   45  A    between atoms: _119  and  _120
REMARK   46  A    between atoms: _119  and  _122
REMARK   47  A    between atoms: _122  and  _123
REMARK   48  A    between atoms: _123  and  _124
REMARK   49  A    between atoms: _124  and  _125
REMARK   50  A    between atoms: _125  and  _126
REMARK   51  A    between atoms: _130  and  _132
REMARK   52  A    between atoms: _132  and  _133
REMARK   53  A    between atoms: _132  and  _135
REMARK   54  A    between atoms: _135  and  _136
REMARK   55  A    between atoms: _136  and  _137
REMARK   56  A    between atoms: _137  and  _138
REMARK   57  A    between atoms: _138  and  _139
REMARK   58  A    between atoms: _143  and  _145
REMARK   59  A    between atoms: _145  and  _146
REMARK   60  A    between atoms: _145  and  _148
REMARK   61  A    between atoms: _148  and  _149
REMARK   62  A    between atoms: _152  and  _154
REMARK   63  A    between atoms: _154  and  _155
REMARK   64  A    between atoms: _154  and  _157
REMARK   65  A    between atoms: _157  and  _158
REMARK   66  A    between atoms: _161  and  _163
REMARK   67  A    between atoms: _163  and  _164
REMARK   68  A    between atoms: _163  and  _166
REMARK   69  A    between atoms: _166  and  _167
REMARK   70  A    between atoms: _172  and  _174
REMARK   71  A    between atoms: _174  and  _175
REMARK   72  A    between atoms: _174  and  _177
REMARK   73  A    between atoms: _177  and  _178
REMARK   74  A    between atoms: _178  and  _179
REMARK   75  A    between atoms: _179  and  _180
REMARK   76  A    between atoms: _180  and  _181
REMARK   77  A    between atoms: _185  and  _187
REMARK   78  A    between atoms: _187  and  _188
REMARK   79  A    between atoms: _187  and  _190
REMARK   80  A    between atoms: _190  and  _191
REMARK   81  A    between atoms: _191  and  _192
REMARK   82  A    between atoms: _192  and  _193
REMARK   83  A    between atoms: _202  and  _204
REMARK   84  A    between atoms: _204  and  _205
REMARK   85  A    between atoms: _204  and  _207
REMARK   86  A    between atoms: _207  and  _208
REMARK   87  A    between atoms: _211  and  _213
REMARK   88  A    between atoms: _213  and  _214
REMARK   89  A    between atoms: _213  and  _216
REMARK   90  A    between atoms: _216  and  _217
REMARK   91  A    between atoms: _222  and  _223
REMARK   92  A    between atoms: _225  and  _227
REMARK   93  A    between atoms: _227  and  _228
REMARK   94  A    between atoms: _227  and  _230
REMARK   95  A    between atoms: _230  and  _231
REMARK   96  A    between atoms: _231  and  _232
REMARK   97  A    between atoms: _232  and  _233
REMARK   98  A    between atoms: _242  and  _244
REMARK   99  A    between atoms: _244  and  _245
REMARK  100  A    between atoms: _244  and  _247
REMARK  101  A    between atoms: _247  and  _248
REMARK  102  A    between atoms: _248  and  _249
REMARK  103  A    between atoms: _252  and  _254
REMARK  104  A    between atoms: _254  and  _255
REMARK  105  A    between atoms: _254  and  _257
REMARK  106  A    between atoms: _257  and  _258
REMARK  107  A    between atoms: _261  and  _263
REMARK  108  A    between atoms: _263  and  _264
REMARK  109  A    between atoms: _263  and  _266
REMARK  110  A    between atoms: _266  and  _267
REMARK  111  A    between atoms: _267  and  _268
REMARK  112  A    between atoms: _268  and  _269
REMARK  113  A    between atoms: _278  and  _280
REMARK  114  A    between atoms: _280  and  _281
REMARK  115  A    between atoms: _280  and  _283
REMARK  116  A    between atoms: _283  and  _284
REMARK  117  A    between atoms: _287  and  _289
REMARK  118  A    between atoms: _289  and  _290
REMARK  119  A    between atoms: _289  and  _292
REMARK  120  A    between atoms: _292  and  _293
REMARK  121  A    between atoms: _296  and  _298
REMARK  122  A    between atoms: _298  and  _299
REMARK  123  A    between atoms: _298  and  _301
REMARK  124  A    between atoms: _301  and  _302
REMARK  125  A    between atoms: _307  and  _309
REMARK  126  A    between atoms: _309  and  _310
REMARK  127  A    between atoms: _309  and  _312
REMARK  128  A    between atoms: _312  and  _313
REMARK  129  A    between atoms: _313  and  _314
REMARK  130  A    between atoms: _316  and  _318
REMARK  131  A    between atoms: _318  and  _319
REMARK  132  A    between atoms: _318  and  _321
REMARK  133  A    between atoms: _321  and  _322
REMARK  134  A    between atoms: _327  and  _329
REMARK  135  A    between atoms: _329  and  _330
REMARK  136  A    between atoms: _329  and  _332
REMARK  137  A    between atoms: _335  and  _337
REMARK  138  A    between atoms: _337  and  _338
REMARK  139  A    between atoms: _337  and  _340
REMARK  140  A    between atoms: _340  and  _341
REMARK  141  A    between atoms: _344  and  _346
REMARK  142  A    between atoms: _346  and  _347
REMARK  143  A    between atoms: _349  and  _351
REMARK  144  A    between atoms: _351  and  _352
REMARK  145  A    between atoms: _351  and  _354
REMARK  146  A    between atoms: _354  and  _355
REMARK  147  A    between atoms: _358  and  _360
REMARK  148  A    between atoms: _360  and  _361
REMARK  149  A    between atoms: _360  and  _363
REMARK  150  A    between atoms: _363  and  _364
REMARK  151  A    between atoms: _367  and  _369
REMARK  152  A    between atoms: _369  and  _370
REMARK  153  A    between atoms: _369  and  _372
REMARK  154  A    between atoms: _372  and  _373
REMARK  155  A    between atoms: _376  and  _378
REMARK  156  A    between atoms: _378  and  _379
REMARK  157  A    between atoms: _378  and  _381
REMARK  158  A    between atoms: _381  and  _382
REMARK  159  A    between atoms: _387  and  _388
REMARK  160  A    between atoms: _390  and  _392
REMARK  161  A    between atoms: _392  and  _393
REMARK  162  A    between atoms: _392  and  _395
REMARK  163  A    between atoms: _395  and  _396
REMARK  164  A    between atoms: _399  and  _401
REMARK  165  A    between atoms: _401  and  _402
REMARK  166  A    between atoms: _401  and  _404
REMARK  167  A    between atoms: _407  and  _409
REMARK  168  A    between atoms: _409  and  _410
REMARK  169  A    between atoms: _409  and  _412
REMARK  170  A    between atoms: _412  and  _413
REMARK  171  A    between atoms: _416  and  _418
REMARK  172  A    between atoms: _418  and  _419
REMARK  173  A    between atoms: _418  and  _421
REMARK  174  A    between atoms: _421  and  _422
REMARK  175  A    between atoms: _427  and  _429
REMARK  176  A    between atoms: _429  and  _430
REMARK  177  A    between atoms: _429  and  _432
REMARK  178  A    between atoms: _432  and  _433
REMARK  179  A    between atoms: _436  and  _438
REMARK  180  A    between atoms: _438  and  _439
REMARK  181  A    between atoms: _438  and  _441
REMARK  182  A    between atoms: _441  and  _442
REMARK  183  A    between atoms: _442  and  _443
REMARK  184  A    between atoms: _445  and  _447
REMARK  185  A    between atoms: _447  and  _448
REMARK  186  A    between atoms: _450  and  _452
REMARK  187  A    between atoms: _452  and  _453
REMARK  188  A    between atoms: _456  and  _458
REMARK  189  A    between atoms: _458  and  _459
REMARK  190  A    between atoms: _458  and  _461
REMARK  191  A    between atoms: _461  and  _462
REMARK  192  A    between atoms: _465  and  _467
REMARK  193  A    between atoms: _467  and  _468
REMARK  194  A    between atoms: _467  and  _470
REMARK  195  A    between atoms: _470  and  _471
REMARK  196  A    between atoms: _476  and  _477
REMARK  197  A    between atoms: _479  and  _481
REMARK  198  A    between atoms: _481  and  _482
REMARK  199  A    between atoms: _481  and  _484
REMARK  200  A    between atoms: _484  and  _485
REMARK  201  A    between atoms: _488  and  _490
REMARK  202  A    between atoms: _490  and  _491
REMARK  203  A    between atoms: _490  and  _493
REMARK  204  A    between atoms: _493  and  _494
REMARK  205  A    between atoms: _497  and  _499
REMARK  206  A    between atoms: _499  and  _500
REMARK  207  A    between atoms: _499  and  _502
REMARK  208  A    between atoms: _502  and  _503
REMARK  209  A    between atoms: _506  and  _508
REMARK  210  A    between atoms: _508  and  _509
REMARK  211  A    between atoms: _508  and  _511
REMARK  212  A    between atoms: _511  and  _512
REMARK  213  A    between atoms: _517  and  _519
REMARK  214  A    between atoms: _519  and  _520
REMARK  215  A    between atoms: _519  and  _522
REMARK  216  A    between atoms: _522  and  _523
REMARK  217  A    between atoms: _523  and  _524
REMARK  218  A    between atoms: _524  and  _525
REMARK  219  A    between atoms: _534  and  _536
REMARK  220  A    between atoms: _536  and  _537
REMARK  221  A    between atoms: _536  and  _539
REMARK  222  A    between atoms: _539  and  _540
REMARK  223  A    between atoms: _543  and  _545
REMARK  224  A    between atoms: _545  and  _546
REMARK  225  A    between atoms: _545  and  _548
REMARK  226  A    between atoms: _548  and  _549
REMARK  227  A    between atoms: _552  and  _554
REMARK  228  A    between atoms: _554  and  _555
REMARK  229  A    between atoms: _554  and  _557
REMARK  230  A    between atoms: _557  and  _558
REMARK  231  A    between atoms: _563  and  _565
REMARK  232  A    between atoms: _565  and  _566
REMARK  233  A    between atoms: _565  and  _568
REMARK  234  A    between atoms: _568  and  _569
REMARK  235  A    between atoms: _572  and  _574
REMARK  236  A    between atoms: _574  and  _575
REMARK  237  A    between atoms: _578  and  _580
REMARK  238  A    between atoms: _580  and  _581
REMARK  239  A    between atoms: _580  and  _583
REMARK  240  A    between atoms: _583  and  _584
REMARK  241  A    between atoms: _584  and  _585
REMARK  242  A    between atoms: _585  and  _586
REMARK  243  A    between atoms: _586  and  _587
REMARK  244  A    between atoms: _591  and  _593
REMARK  245  A    between atoms: _593  and  _594
REMARK  246  A    between atoms: _593  and  _596
REMARK  247  A    between atoms: _596  and  _597
REMARK  248  A    between atoms: _600  and  _602
REMARK  249  A    between atoms: _602  and  _603
REMARK  250  A    between atoms: _602  and  _605
REMARK  251  A    between atoms: _605  and  _606
REMARK  252  A    between atoms: _609  and  _611
REMARK  253  A    between atoms: _611  and  _612
REMARK  254  A    between atoms: _611  and  _614
REMARK  255  A    between atoms: _614  and  _615
REMARK  256  A    between atoms: _618  and  _620
REMARK  257  A    between atoms: _620  and  _621
REMARK  258  A    between atoms: _620  and  _623
REMARK  259  A    between atoms: _623  and  _624
REMARK  260  A    between atoms: _630  and  _632
REMARK  261  A    between atoms: _632  and  _633
REMARK  262  A    between atoms: _635  and  _637
REMARK  263  A    between atoms: _637  and  _638
REMARK  264  A    between atoms: _637  and  _640
REMARK  265  A    between atoms: _640  and  _641
REMARK  266  A    between atoms: _644  and  _646
REMARK  267  A    between atoms: _646  and  _647
REMARK  268  A    between atoms: _646  and  _649
REMARK  269  A    between atoms: _649  and  _650
REMARK  270  A    between atoms: _653  and  _655
REMARK  271  A    between atoms: _655  and  _656
REMARK  272  A    between atoms: _655  and  _658
REMARK  273  A    between atoms: _658  and  _659
REMARK  274  A    between atoms: _664  and  _665
REMARK  275  A    between atoms: _667  and  _669
REMARK  276  A    between atoms: _669  and  _670
REMARK  277  A    between atoms: _669  and  _672
REMARK  278  A    between atoms: _672  and  _673
REMARK  279  A    between atoms: _673  and  _674
REMARK                            x       y       z     vdW  Elec       q    Type
REMARK                         _______ _______ _______ _____ _____    ______ ____
ROOT
ATOM      1  CA  ARG A   5      14.647 -13.427  -6.305  0.00  0.00    +0.149 C 
ENDROOT
BRANCH   1   2
ATOM      2  C   ARG A   5      14.543 -12.599  -5.047  0.00  0.00    +0.241 C 
ATOM      3  O   ARG A   5      15.121 -12.972  -4.024  0.00  0.00    -0.273 OA
ATOM      4  N   GLU A   6      13.820 -11.483  -5.113  0.00  0.00    -0.297 N 
ATOM      5  H   GLU A   6      13.343 -11.227  -6.001  0.00  0.00    +0.150 HD
BRANCH   4   6
ATOM      6  CA  GLU A   6      13.695 -10.626  -3.957  0.00  0.00    +0.149 C 
BRANCH   6   7
ATOM      7  C   GLU A   6      12.924 -11.304  -2.804  0.00  0.00    +0.241 C 
ATOM      8  O   GLU A   6      13.371 -11.278  -1.634  0.00  0.00    -0.273 OA
ATOM      9  N   LEU A   7      11.798 -11.935  -3.125  0.00  0.00    -0.297 N 
ATOM     10  H   LEU A   7      11.438 -11.889  -4.100  0.00  0.00    +0.150 HD
BRANCH   9  11
ATOM     11  CA  LEU A   7      11.058 -12.699  -2.106  0.00  0.00    +0.149 C 
BRANCH  11  12
ATOM     12  C   LEU A   7      11.884 -13.837  -1.464  0.00  0.00    +0.241 C 
ATOM     13  O   LEU A   7      11.908 -13.969  -0.244  0.00  0.00    -0.273 OA
ATOM     14  N   ARG A   8      12.578 -14.635  -2.281  0.00  0.00    -0.297 N 
ATOM     15  H   ARG A   8      12.522 -14.488  -3.309  0.00  0.00    +0.150 HD
BRANCH  14  16
ATOM     16  CA  ARG A   8      13.414 -15.710  -1.755  0.00  0.00    +0.149 C 
BRANCH  16  17
ATOM     17  C   ARG A   8      14.477 -15.211  -0.799  0.00  0.00    +0.241 C 
ATOM     18  O   ARG A   8      14.701 -15.801   0.254  0.00  0.00    -0.273 OA
ATOM     19  N   LEU A   9      15.172 -14.149  -1.208  0.00  0.00    -0.297 N 
ATOM     20  H   LEU A   9      14.903 -13.701  -2.107  0.00  0.00    +0.150 HD
BRANCH  19  21
ATOM     21  CA  LEU A   9      16.280 -13.588  -0.468  0.00  0.00    +0.149 C 
BRANCH  21  22
ATOM     22  C   LEU A   9      15.766 -13.028   0.856  0.00  0.00    +0.241 C 
ATOM     23  O   LEU A   9      16.291 -13.373   1.917  0.00  0.00    -0.273 OA
ATOM     24  N   LEU A  10      14.717 -12.194   0.793  0.00  0.00    -0.298 N 
ATOM     25  H   LEU A  10      14.307 -11.959  -0.133  0.00  0.00    +0.150 HD
BRANCH  24  26
ATOM     26  CA  LEU A  10      14.136 -11.605   2.010  0.00  0.00    +0.137 C 
BRANCH  26  27
ATOM     27  C   LEU A  10      13.536 -12.632   2.957  0.00  0.00    +0.227 C 
ATOM     28  O   LEU A  10      13.690 -12.486   4.176  0.00  0.00    -0.286 OA
ENDBRANCH  26  27
BRANCH  26  29
ATOM     29  CB  LEU A  10      13.131 -10.474   1.687  0.00  0.00    +0.028 C 
BRANCH  29  30
ATOM     30  CG  LEU A  10      13.719  -9.213   1.065  0.00  0.00    +0.002 C 
ATOM     31  CD2 LEU A  10      14.912  -8.701   1.846  0.00  0.00    +0.000 C 
ATOM     32  CD1 LEU A  10      12.650  -8.156   0.979  0.00  0.00    +0.000 C 
ENDBRANCH  29  30
ENDBRANCH  26  29
ENDBRANCH  24  26
ENDBRANCH  21  22
BRANCH  21  33
ATOM     33  CB  LEU A   9      16.882 -12.461  -1.300  0.00  0.00    +0.029 C 
BRANCH  33  34
ATOM     34  CG  LEU A   9      18.335 -12.204  -1.677  0.00  0.00    +0.002 C 
ATOM     35  CD2 LEU A   9      19.194 -13.443  -1.707  0.00  0.00    +0.000 C 
ATOM     36  CD1 LEU A   9      18.305 -11.590  -3.063  0.00  0.00    +0.000 C 
ENDBRANCH  33  34
ENDBRANCH  21  33
ENDBRANCH  19  21
ENDBRANCH  16  17
BRANCH  16  37
ATOM     37  CB  ARG A   8      14.078 -16.497  -2.891  0.00  0.00    +0.033 C 
BRANCH  37  38
ATOM     38  CG  ARG A   8      13.118 -17.442  -3.665  0.00  0.00    +0.045 C 
BRANCH  38  39
ATOM     39  CD  ARG A   8      12.664 -18.678  -2.861  0.00  0.00    +0.174 C 
BRANCH  39  40
ATOM     40  NE  ARG A   8      13.812 -19.327  -2.269  0.00  0.00    -0.265 N 
ATOM     41  HE  ARG A   8      13.953 -19.219  -1.244  0.00  0.00    +0.259 HD
ATOM     42  CZ  ARG A   8      14.699 -20.050  -2.940  0.00  0.00    +0.342 C 
ATOM     43  NH2 ARG A   8      15.748 -20.557  -2.298  0.00  0.00    -0.292 N 
ATOM     44 HH21 ARG A   8      15.867 -20.385  -1.279  0.00  0.00    +0.255 HD
ATOM     45 HH22 ARG A   8      16.449 -21.125  -2.815  0.00  0.00    +0.255 HD
ATOM     46  NH1 ARG A   8      14.540 -20.293  -4.225  0.00  0.00    -0.292 N 
ATOM     47 HH11 ARG A   8      13.711 -19.916  -4.727  0.00  0.00    +0.255 HD
ATOM     48 HH12 ARG A   8      15.244 -20.862  -4.738  0.00  0.00    +0.255 HD
ENDBRANCH  39  40
ENDBRANCH  38  39
ENDBRANCH  37  38
ENDBRANCH  16  37
ENDBRANCH  14  16
ENDBRANCH  11  12
BRANCH  11  49
ATOM     49  CB  LEU A   7       9.751 -13.220  -2.685  0.00  0.00    +0.029 C 
BRANCH  49  50
ATOM     50  CG  LEU A   7       8.799 -13.921  -1.669  0.00  0.00    +0.002 C 
ATOM     51  CD2 LEU A   7       8.587 -13.104  -0.365  0.00  0.00    +0.000 C 
ATOM     52  CD1 LEU A   7       7.500 -14.285  -2.325  0.00  0.00    +0.000 C 
ENDBRANCH  49  50
ENDBRANCH  11  49
ENDBRANCH   9  11
ENDBRANCH   6   7
BRANCH   6  53
ATOM     53  CB  GLU A   6      13.057  -9.272  -4.275  0.00  0.00    +0.041 C 
BRANCH  53  54
ATOM     54  CG  GLU A   6      13.211  -8.348  -3.007  0.00  0.00    +0.116 C 
BRANCH  54  55
ATOM     55  CD  GLU A   6      12.745  -6.948  -3.196  0.00  0.00    +0.365 C 
ATOM     56  OE2 GLU A   6      13.003  -6.128  -2.288  0.00  0.00    -0.246 OA
ATOM     57  OE1 GLU A   6      12.117  -6.660  -4.228  0.00  0.00    -0.246 OA
ENDBRANCH  54  55
ENDBRANCH  53  54
ENDBRANCH   6  53
ENDBRANCH   4   6
ENDBRANCH   1   2
BRANCH   1  60
ATOM     58  C   TYR A   4      12.302 -14.202  -6.251  0.00  0.00    +0.241 C 
ATOM     59  O   TYR A   4      12.345 -14.618  -5.069  0.00  0.00    -0.273 OA
ATOM     60  N   ARG A   5      13.330 -13.638  -6.892  0.00  0.00    -0.297 N 
ATOM     61  H   ARG A   5      13.180 -13.330  -7.874  0.00  0.00    +0.150 HD
BRANCH  58  62
ATOM     62  CA  TYR A   4      11.011 -14.306  -7.078  0.00  0.00    +0.153 C 
BRANCH  62  65
ATOM     63  C   THR A   3      10.477 -11.907  -7.059  0.00  0.00    +0.243 C 
ATOM     64  O   THR A   3      10.555 -11.809  -5.821  0.00  0.00    -0.273 OA
ATOM     65  N   TYR A   4      10.720 -13.032  -7.733  0.00  0.00    -0.297 N 
ATOM     66  H   TYR A   4      10.702 -13.001  -8.772  0.00  0.00    +0.150 HD
BRANCH  63  67
ATOM     67  CA  THR A   3      10.168 -10.689  -7.912  0.00  0.00    +0.176 C 
BRANCH  67  70
ATOM     68  C   ARG A   2      12.491 -10.420  -8.661  0.00  0.00    +0.241 C 
ATOM     69  O   ARG A   2      12.904 -10.210  -7.526  0.00  0.00    -0.273 OA
ATOM     70  N   THR A   3      11.207 -10.556  -8.940  0.00  0.00    -0.295 N 
ATOM     71  H   THR A   3      10.918 -10.570  -9.939  0.00  0.00    +0.150 HD
BRANCH  68  72
ATOM     72  CA  ARG A   2      13.429 -10.352  -9.860  0.00  0.00    +0.149 C 
BRANCH  72  75
ATOM     73  C   LYS A   1      13.104 -12.694 -10.693  0.00  0.00    +0.238 C 
ATOM     74  O   LYS A   1      13.477 -13.230  -9.646  0.00  0.00    -0.274 OA
ATOM     75  N   ARG A   2      13.179 -11.367 -10.911  0.00  0.00    -0.297 N 
ATOM     76  H   ARG A   2      13.052 -11.030 -11.887  0.00  0.00    +0.150 HD
BRANCH  73  77
ATOM     77  CA  LYS A   1      12.545 -13.562 -11.837  0.00  0.00    +0.145 C 
BRANCH  77  78
ATOM     78  N   LYS A   1      11.421 -12.943 -12.542  0.00  0.00    -0.238 NA
ATOM     79  H   LYS A   1      11.571 -12.583 -13.506  0.00  0.00    +0.142 HD
ENDBRANCH  77  78
BRANCH  77  80
ATOM     80  CB  LYS A   1      13.651 -13.931 -12.845  0.00  0.00    +0.026 C 
BRANCH  80  81
ATOM     81  CG  LYS A   1      14.782 -14.782 -12.280  0.00  0.00    -0.000 C 
BRANCH  81  82
ATOM     82  CD  LYS A   1      15.739 -15.271 -13.392  0.00  0.00    -0.024 C 
BRANCH  82  83
ATOM     83  CE  LYS A   1      16.911 -16.048 -12.776  0.00  0.00    -0.086 C 
BRANCH  83  84
ATOM     84  NZ  LYS A   1      17.763 -16.674 -13.838  0.00  0.00    +0.380 N 
ATOM     85  HZ1 LYS A   1      18.547 -17.192 -13.392  0.00  0.00    -0.089 HD
ATOM     86  HZ2 LYS A   1      17.186 -17.332 -14.400  0.00  0.00    -0.089 HD
ATOM     87  HZ3 LYS A   1      18.145 -15.931 -14.457  0.00  0.00    -0.089 HD
ENDBRANCH  83  84
ENDBRANCH  82  83
ENDBRANCH  81  82
ENDBRANCH  80  81
ENDBRANCH  77  80
ENDBRANCH  73  77
ENDBRANCH  72  75
BRANCH  72  88
ATOM     88  CB  ARG A   2      13.236  -8.936 -10.449  0.00  0.00    +0.033 C 
BRANCH  88  89
ATOM     89  CG  ARG A   2      14.516  -8.168 -10.817  0.00  0.00    +0.045 C 
BRANCH  89  90
ATOM     90  CD  ARG A   2      14.137  -6.853 -11.574  0.00  0.00    +0.174 C 
BRANCH  90  91
ATOM     91  NE  ARG A   2      15.231  -6.366 -12.428  0.00  0.00    -0.265 N 
ATOM     92  HE  ARG A   2      16.088  -6.950 -12.509  0.00  0.00    +0.259 HD
ATOM     93  CZ  ARG A   2      15.185  -5.219 -13.104  0.00  0.00    +0.342 C 
ATOM     94  NH2 ARG A   2      14.102  -4.438 -13.004  0.00  0.00    -0.292 N 
ATOM     95 HH21 ARG A   2      13.305  -4.728 -12.402  0.00  0.00    +0.255 HD
ATOM     96 HH22 ARG A   2      14.058  -3.541 -13.528  0.00  0.00    +0.255 HD
ATOM     97  NH1 ARG A   2      16.219  -4.845 -13.859  0.00  0.00    -0.292 N 
ATOM     98 HH11 ARG A   2      17.063  -5.449 -13.921  0.00  0.00    +0.255 HD
ATOM     99 HH12 ARG A   2      16.181  -3.949 -14.386  0.00  0.00    +0.255 HD
ENDBRANCH  90  91
ENDBRANCH  89  90
ENDBRANCH  88  89
ENDBRANCH  72  88
ENDBRANCH  68  72
ENDBRANCH  67  70
BRANCH  67 100
ATOM    100  CB  THR A   3       8.795 -10.790  -8.564  0.00  0.00    +0.137 C 
ATOM    101  CG2 THR A   3       7.674 -10.950  -7.541  0.00  0.00    +0.034 C 
BRANCH 100 102
ATOM    102  OG1 THR A   3       8.567  -9.587  -9.293  0.00  0.00    -0.382 OA
ATOM    103  HG1 THR A   3       9.268  -9.483  -9.984  0.00  0.00    +0.210 HD
ENDBRANCH 100 102
ENDBRANCH  67 100
ENDBRANCH  63  67
ENDBRANCH  62  65
BRANCH  62 104
ATOM    104  CB  TYR A   4      11.118 -15.445  -8.121  0.00  0.00    +0.055 C 
BRANCH 104 105
ATOM    105  CG  TYR A   4      11.346 -16.818  -7.501  0.00  0.00    -0.020 A 
ATOM    106  CD2 TYR A   4      10.336 -17.464  -6.793  0.00  0.00    -0.001 A 
ATOM    107  CE2 TYR A   4      10.545 -18.722  -6.214  0.00  0.00    +0.036 A 
ATOM    108  CZ  TYR A   4      11.772 -19.335  -6.359  0.00  0.00    +0.134 A 
ATOM    109  CE1 TYR A   4      12.777 -18.709  -7.060  0.00  0.00    +0.036 A 
ATOM    110  CD1 TYR A   4      12.558 -17.454  -7.625  0.00  0.00    -0.001 A 
BRANCH 108 111
ATOM    111  OH  TYR A   4      12.002 -20.579  -5.801  0.00  0.00    -0.506 OA
ATOM    112  HH  TYR A   4      12.928 -20.864  -6.003  0.00  0.00    +0.292 HD
ENDBRANCH 108 111
ENDBRANCH 104 105
ENDBRANCH  62 104
ENDBRANCH  58  62
ENDBRANCH   1  60
BRANCH   1 113
ATOM    113  CB  ARG A   5      15.625 -12.747  -7.308  0.00  0.00    +0.033 C 
BRANCH 113 114
ATOM    114  CG  ARG A   5      16.965 -12.293  -6.690  0.00  0.00    +0.045 C 
BRANCH 114 115
ATOM    115  CD  ARG A   5      17.907 -11.562  -7.702  0.00  0.00    +0.174 C 
BRANCH 115 116
ATOM    116  NE  ARG A   5      18.062 -12.360  -8.913  0.00  0.00    -0.265 N 
ATOM    117  HE  ARG A   5      18.500 -13.297  -8.801  0.00  0.00    +0.259 HD
ATOM    118  CZ  ARG A   5      17.699 -12.012 -10.155  0.00  0.00    +0.342 C 
ATOM    119  NH2 ARG A   5      17.215 -10.804 -10.436  0.00  0.00    -0.292 N 
ATOM    120 HH21 ARG A   5      17.109 -10.098  -9.680  0.00  0.00    +0.255 HD
ATOM    121 HH22 ARG A   5      16.943 -10.567 -11.411  0.00  0.00    +0.255 HD
ATOM    122  NH1 ARG A   5      17.870 -12.887 -11.147  0.00  0.00    -0.292 N 
ATOM    123 HH11 ARG A   5      18.279 -13.823 -10.950  0.00  0.00    +0.255 HD
ATOM    124 HH12 ARG A   5      17.594 -12.634 -12.117  0.00  0.00    +0.255 HD
ENDBRANCH 115 116
ENDBRANCH 114 115
ENDBRANCH 113 114
ENDBRANCH   1 113
TORSDOF 51
REMARK  Name = ../refined-set-2016/3gcu/3gcu_pocket.pdb
REMARK  279 active torsions:
REMARK  status: ('A' for Active; 'I' for Inactive)
REMARK    1  A    between atoms: _2  and  _3
REMARK    2  A    between atoms: _8  and  _10
REMARK    3  A    between atoms: _10  and  _11
REMARK    4  A    between atoms: _10  and  _13
REMARK    5  A    between atoms: _16  and  _18
REMARK    6  A    between atoms: _18  and  _19
REMARK    7  A    between atoms: _21  and  _23
REMARK    8  A    between atoms: _23  and  _24
REMARK    9  A    between atoms: _23  and  _26
REMARK   10  A    between atoms: _26  and  _27
REMARK   11  A    between atoms: _29  and  _31
REMARK   12  A    between atoms: _31  and  _32
REMARK   13  A    between atoms: _31  and  _34
REMARK   14  A    between atoms: _34  and  _35
REMARK   15  A    between atoms: _40  and  _41
REMARK   16  A    between atoms: _43  and  _45
REMARK   17  A    between atoms: _45  and  _46
REMARK   18  A    between atoms: _45  and  _48
REMARK   19  A    between atoms: _48  and  _49
REMARK   20  A    between atoms: _51  and  _53
REMARK   21  A    between atoms: _53  and  _54
REMARK   22  A    between atoms: _53  and  _56
REMARK   23  A    between atoms: _59  and  _61
REMARK   24  A    between atoms: _61  and  _62
REMARK   25  A    between atoms: _61  and  _64
REMARK   26  A    between atoms: _66  and  _68
REMARK   27  A    between atoms: _68  and  _69
REMARK   28  A    between atoms: _72  and  _74
REMARK   29  A    between atoms: _74  and  _75
REMARK   30  A    between atoms: _78  and  _80
REMARK   31  A    between atoms: _80  and  _81
REMARK   32  A    between atoms: _80  and  _83
REMARK   33  A    between atoms: _83  and  _84
REMARK   34  A    between atoms: _84  and  _85
REMARK   35  A    between atoms: _85  and  _86
REMARK   36  A    between atoms: _95  and  _97
REMARK   37  A    between atoms: _97  and  _98
REMARK   38  A    between atoms: _97  and  _100
REMARK   39  A    between atoms: _103  and  _105
REMARK   40  A    between atoms: _105  and  _106
REMARK   41  A    between atoms: _109  and  _111
REMARK   42  A    between atoms: _111  and  _112
REMARK   43  A    between atoms: _111  and  _114
REMARK   44  A    between atoms: _117  and  _119
REMARK   45  A    between atoms: _119  and  _120
REMARK   46  A    between atoms: _119  and  _122
REMARK   47  A    between atoms: _122  and  _123
REMARK   48  A    between atoms: _123  and  _124
REMARK   49  A    between atoms: _124  and  _125
REMARK   50  A    between atoms: _125  and  _126
REMARK   51  A    between atoms: _130  and  _132
REMARK   52  A    between atoms: _132  and  _133
REMARK   53  A    between atoms: _132  and  _135
REMARK   54  A    between atoms: _135  and  _136
REMARK   55  A    between atoms: _136  and  _137
REMARK   56  A    between atoms: _137  and  _138
REMARK   57  A    between atoms: _138  and  _139
REMARK   58  A    between atoms: _143  and  _145
REMARK   59  A    between atoms: _145  and  _146
REMARK   60  A    between atoms: _145  and  _148
REMARK   61  A    between atoms: _148  and  _149
REMARK   62  A    between atoms: _152  and  _154
REMARK   63  A    between atoms: _154  and  _155
REMARK   64  A    between atoms: _154  and  _157
REMARK   65  A    between atoms: _157  and  _158
REMARK   66  A    between atoms: _161  and  _163
REMARK   67  A    between atoms: _163  and  _164
REMARK   68  A    between atoms: _163  and  _166
REMARK   69  A    between atoms: _166  and  _167
REMARK   70  A    between atoms: _172  and  _174
REMARK   71  A    between atoms: _174  and  _175
REMARK   72  A    between atoms: _174  and  _177
REMARK   73  A    between atoms: _177  and  _178
REMARK   74  A    between atoms: _178  and  _179
REMARK   75  A    between atoms: _179  and  _180
REMARK   76  A    between atoms: _180  and  _181
REMARK   77  A    between atoms: _185  and  _187
REMARK   78  A    between atoms: _187  and  _188
REMARK   79  A    between atoms: _187  and  _190
REMARK   80  A    between atoms: _190  and  _191
REMARK   81  A    between atoms: _191  and  _192
REMARK   82  A    between atoms: _192  and  _193
REMARK   83  A    between atoms: _202  and  _204
REMARK   84  A    between atoms: _204  and  _205
REMARK   85  A    between atoms: _204  and  _207
REMARK   86  A    between atoms: _207  and  _208
REMARK   87  A    between atoms: _211  and  _213
REMARK   88  A    between atoms: _213  and  _214
REMARK   89  A    between atoms: _213  and  _216
REMARK   90  A    between atoms: _216  and  _217
REMARK   91  A    between atoms: _222  and  _223
REMARK   92  A    between atoms: _225  and  _227
REMARK   93  A    between atoms: _227  and  _228
REMARK   94  A    between atoms: _227  and  _230
REMARK   95  A    between atoms: _230  and  _231
REMARK   96  A    between atoms: _231  and  _232
REMARK   97  A    between atoms: _232  and  _233
REMARK   98  A    between atoms: _242  and  _244
REMARK   99  A    between atoms: _244  and  _245
REMARK  100  A    between atoms: _244  and  _247
REMARK  101  A    between atoms: _247  and  _248
REMARK  102  A    between atoms: _248  and  _249
REMARK  103  A    between atoms: _252  and  _254
REMARK  104  A    between atoms: _254  and  _255
REMARK  105  A    between atoms: _254  and  _257
REMARK  106  A    between atoms: _257  and  _258
REMARK  107  A    between atoms: _261  and  _263
REMARK  108  A    between atoms: _263  and  _264
REMARK  109  A    between atoms: _263  and  _266
REMARK  110  A    between atoms: _266  and  _267
REMARK  111  A    between atoms: _267  and  _268
REMARK  112  A    between atoms: _268  and  _269
REMARK  113  A    between atoms: _278  and  _280
REMARK  114  A    between atoms: _280  and  _281
REMARK  115  A    between atoms: _280  and  _283
REMARK  116  A    between atoms: _283  and  _284
REMARK  117  A    between atoms: _287  and  _289
REMARK  118  A    between atoms: _289  and  _290
REMARK  119  A    between atoms: _289  and  _292
REMARK  120  A    between atoms: _292  and  _293
REMARK  121  A    between atoms: _296  and  _298
REMARK  122  A    between atoms: _298  and  _299
REMARK  123  A    between atoms: _298  and  _301
REMARK  124  A    between atoms: _301  and  _302
REMARK  125  A    between atoms: _307  and  _309
REMARK  126  A    between atoms: _309  and  _310
REMARK  127  A    between atoms: _309  and  _312
REMARK  128  A    between atoms: _312  and  _313
REMARK  129  A    between atoms: _313  and  _314
REMARK  130  A    between atoms: _316  and  _318
REMARK  131  A    between atoms: _318  and  _319
REMARK  132  A    between atoms: _318  and  _321
REMARK  133  A    between atoms: _321  and  _322
REMARK  134  A    between atoms: _327  and  _329
REMARK  135  A    between atoms: _329  and  _330
REMARK  136  A    between atoms: _329  and  _332
REMARK  137  A    between atoms: _335  and  _337
REMARK  138  A    between atoms: _337  and  _338
REMARK  139  A    between atoms: _337  and  _340
REMARK  140  A    between atoms: _340  and  _341
REMARK  141  A    between atoms: _344  and  _346
REMARK  142  A    between atoms: _346  and  _347
REMARK  143  A    between atoms: _349  and  _351
REMARK  144  A    between atoms: _351  and  _352
REMARK  145  A    between atoms: _351  and  _354
REMARK  146  A    between atoms: _354  and  _355
REMARK  147  A    between atoms: _358  and  _360
REMARK  148  A    between atoms: _360  and  _361
REMARK  149  A    between atoms: _360  and  _363
REMARK  150  A    between atoms: _363  and  _364
REMARK  151  A    between atoms: _367  and  _369
REMARK  152  A    between atoms: _369  and  _370
REMARK  153  A    between atoms: _369  and  _372
REMARK  154  A    between atoms: _372  and  _373
REMARK  155  A    between atoms: _376  and  _378
REMARK  156  A    between atoms: _378  and  _379
REMARK  157  A    between atoms: _378  and  _381
REMARK  158  A    between atoms: _381  and  _382
REMARK  159  A    between atoms: _387  and  _388
REMARK  160  A    between atoms: _390  and  _392
REMARK  161  A    between atoms: _392  and  _393
REMARK  162  A    between atoms: _392  and  _395
REMARK  163  A    between atoms: _395  and  _396
REMARK  164  A    between atoms: _399  and  _401
REMARK  165  A    between atoms: _401  and  _402
REMARK  166  A    between atoms: _401  and  _404
REMARK  167  A    between atoms: _407  and  _409
REMARK  168  A    between atoms: _409  and  _410
REMARK  169  A    between atoms: _409  and  _412
REMARK  170  A    between atoms: _412  and  _413
REMARK  171  A    between atoms: _416  and  _418
REMARK  172  A    between atoms: _418  and  _419
REMARK  173  A    between atoms: _418  and  _421
REMARK  174  A    between atoms: _421  and  _422
REMARK  175  A    between atoms: _427  and  _429
REMARK  176  A    between atoms: _429  and  _430
REMARK  177  A    between atoms: _429  and  _432
REMARK  178  A    between atoms: _432  and  _433
REMARK  179  A    between atoms: _436  and  _438
REMARK  180  A    between atoms: _438  and  _439
REMARK  181  A    between atoms: _438  and  _441
REMARK  182  A    between atoms: _441  and  _442
REMARK  183  A    between atoms: _442  and  _443
REMARK  184  A    between atoms: _445  and  _447
REMARK  185  A    between atoms: _447  and  _448
REMARK  186  A    between atoms: _450  and  _452
REMARK  187  A    between atoms: _452  and  _453
REMARK  188  A    between atoms: _456  and  _458
REMARK  189  A    between atoms: _458  and  _459
REMARK  190  A    between atoms: _458  and  _461
REMARK  191  A    between atoms: _461  and  _462
REMARK  192  A    between atoms: _465  and  _467
REMARK  193  A    between atoms: _467  and  _468
REMARK  194  A    between atoms: _467  and  _470
REMARK  195  A    between atoms: _470  and  _471
REMARK  196  A    between atoms: _476  and  _477
REMARK  197  A    between atoms: _479  and  _481
REMARK  198  A    between atoms: _481  and  _482
REMARK  199  A    between atoms: _481  and  _484
REMARK  200  A    between atoms: _484  and  _485
REMARK  201  A    between atoms: _488  and  _490
REMARK  202  A    between atoms: _490  and  _491
REMARK  203  A    between atoms: _490  and  _493
REMARK  204  A    between atoms: _493  and  _494
REMARK  205  A    between atoms: _497  and  _499
REMARK  206  A    between atoms: _499  and  _500
REMARK  207  A    between atoms: _499  and  _502
REMARK  208  A    between atoms: _502  and  _503
REMARK  209  A    between atoms: _506  and  _508
REMARK  210  A    between atoms: _508  and  _509
REMARK  211  A    between atoms: _508  and  _511
REMARK  212  A    between atoms: _511  and  _512
REMARK  213  A    between atoms: _517  and  _519
REMARK  214  A    between atoms: _519  and  _520
REMARK  215  A    between atoms: _519  and  _522
REMARK  216  A    between atoms: _522  and  _523
REMARK  217  A    between atoms: _523  and  _524
REMARK  218  A    between atoms: _524  and  _525
REMARK  219  A    between atoms: _534  and  _536
REMARK  220  A    between atoms: _536  and  _537
REMARK  221  A    between atoms: _536  and  _539
REMARK  222  A    between atoms: _539  and  _540
REMARK  223  A    between atoms: _543  and  _545
REMARK  224  A    between atoms: _545  and  _546
REMARK  225  A    between atoms: _545  and  _548
REMARK  226  A    between atoms: _548  and  _549
REMARK  227  A    between atoms: _552  and  _554
REMARK  228  A    between atoms: _554  and  _555
REMARK  229  A    between atoms: _554  and  _557
REMARK  230  A    between atoms: _557  and  _558
REMARK  231  A    between atoms: _563  and  _565
REMARK  232  A    between atoms: _565  and  _566
REMARK  233  A    between atoms: _565  and  _568
REMARK  234  A    between atoms: _568  and  _569
REMARK  235  A    between atoms: _572  and  _574
REMARK  236  A    between atoms: _574  and  _575
REMARK  237  A    between atoms: _578  and  _580
REMARK  238  A    between atoms: _580  and  _581
REMARK  239  A    between atoms: _580  and  _583
REMARK  240  A    between atoms: _583  and  _584
REMARK  241  A    between atoms: _584  and  _585
REMARK  242  A    between atoms: _585  and  _586
REMARK  243  A    between atoms: _586  and  _587
REMARK  244  A    between atoms: _591  and  _593
REMARK  245  A    between atoms: _593  and  _594
REMARK  246  A    between atoms: _593  and  _596
REMARK  247  A    between atoms: _596  and  _597
REMARK  248  A    between atoms: _600  and  _602
REMARK  249  A    between atoms: _602  and  _603
REMARK  250  A    between atoms: _602  and  _605
REMARK  251  A    between atoms: _605  and  _606
REMARK  252  A    between atoms: _609  and  _611
REMARK  253  A    between atoms: _611  and  _612
REMARK  254  A    between atoms: _611  and  _614
REMARK  255  A    between atoms: _614  and  _615
REMARK  256  A    between atoms: _618  and  _620
REMARK  257  A    between atoms: _620  and  _621
REMARK  258  A    between atoms: _620  and  _623
REMARK  259  A    between atoms: _623  and  _624
REMARK  260  A    between atoms: _630  and  _632
REMARK  261  A    between atoms: _632  and  _633
REMARK  262  A    between atoms: _635  and  _637
REMARK  263  A    between atoms: _637  and  _638
REMARK  264  A    between atoms: _637  and  _640
REMARK  265  A    between atoms: _640  and  _641
REMARK  266  A    between atoms: _644  and  _646
REMARK  267  A    between atoms: _646  and  _647
REMARK  268  A    between atoms: _646  and  _649
REMARK  269  A    between atoms: _649  and  _650
REMARK  270  A    between atoms: _653  and  _655
REMARK  271  A    between atoms: _655  and  _656
REMARK  272  A    between atoms: _655  and  _658
REMARK  273  A    between atoms: _658  and  _659
REMARK  274  A    between atoms: _664  and  _665
REMARK  275  A    between atoms: _667  and  _669
REMARK  276  A    between atoms: _669  and  _670
REMARK  277  A    between atoms: _669  and  _672
REMARK  278  A    between atoms: _672  and  _673
REMARK  279  A    between atoms: _673  and  _674
REMARK                            x       y       z     vdW  Elec       q    Type
REMARK                         _______ _______ _______ _____ _____    ______ ____
ROOT
ATOM      1  C   HIS A   1      16.674 -15.385   5.079  0.00  0.00    +0.239 C 
ATOM      2  O   HIS A   1      17.243 -15.975   6.005  0.00  0.00    -0.274 OA
ATOM      3  N   MET A   2      16.648 -14.054   4.967  0.00  0.00    -0.298 N 
ATOM      4  H   MET A   2      16.010 -13.616   4.272  0.00  0.00    +0.150 HD
ENDROOT
BRANCH   1   5
ATOM      5  CA  HIS A   1      15.984 -16.180   3.963  0.00  0.00    +0.151 C 
BRANCH   5   6
ATOM      6  N   HIS A   1      14.834 -15.525   3.380  0.00  0.00    -0.238 NA
ATOM      7  H   HIS A   1      14.938 -15.024   2.475  0.00  0.00    +0.142 HD
ENDBRANCH   5   6
BRANCH   5   8
ATOM      8  CB  HIS A   1      17.024 -16.498   2.895  0.00  0.00    +0.074 C 
BRANCH   8   9
ATOM      9  CG  HIS A   1      18.025 -17.511   3.342  0.00  0.00    +0.082 A 
ATOM     10  CD2 HIS A   1      19.322 -17.377   3.718  0.00  0.00    +0.115 A 
ATOM     11  NE2 HIS A   1      19.764 -18.624   4.082  0.00  0.00    -0.221 NA
ATOM     12  CE1 HIS A   1      18.770 -19.490   3.959  0.00  0.00    +0.199 A 
ATOM     13  ND1 HIS A   1      17.701 -18.842   3.527  0.00  0.00    -0.227 NA
ENDBRANCH   8   9
ENDBRANCH   5   8
ENDBRANCH   1   5
BRANCH   3  14
ATOM     14  CA  MET A   2      17.491 -13.202   5.794  0.00  0.00    +0.138 C 
BRANCH  14  15
ATOM     15  C   MET A   2      16.922 -13.112   7.205  0.00  0.00    +0.227 C 
ATOM     16  O   MET A   2      15.843 -12.536   7.422  0.00  0.00    -0.286 OA
ENDBRANCH  14  15
BRANCH  14  17
ATOM     17  CB  MET A   2      17.668 -11.824   5.159  0.00  0.00    +0.039 C 
BRANCH  17  18
ATOM     18  CG  MET A   2      18.338 -11.852   3.826  0.00  0.00    +0.060 C 
BRANCH  18  19
ATOM     19  SD  MET A   2      20.110 -12.162   3.850  0.00  0.00    -0.139 S 
ATOM     20  CE  MET A   2      20.246 -13.896   3.479  0.00  0.00    +0.069 C 
ENDBRANCH  18  19
ENDBRANCH  17  18
ENDBRANCH  14  17
ENDBRANCH   3  14
TORSDOF 9
REMARK  Name = ../refined-set-2016/3gcu/3gcu_pocket.pdb
REMARK  279 active torsions:
REMARK  status: ('A' for Active; 'I' for Inactive)
REMARK    1  A    between atoms: _2  and  _3
REMARK    2  A    between atoms: _8  and  _10
REMARK    3  A    between atoms: _10  and  _11
REMARK    4  A    between atoms: _10  and  _13
REMARK    5  A    between atoms: _16  and  _18
REMARK    6  A    between atoms: _18  and  _19
REMARK    7  A    between atoms: _21  and  _23
REMARK    8  A    between atoms: _23  and  _24
REMARK    9  A    between atoms: _23  and  _26
REMARK   10  A    between atoms: _26  and  _27
REMARK   11  A    between atoms: _29  and  _31
REMARK   12  A    between atoms: _31  and  _32
REMARK   13  A    between atoms: _31  and  _34
REMARK   14  A    between atoms: _34  and  _35
REMARK   15  A    between atoms: _40  and  _41
REMARK   16  A    between atoms: _43  and  _45
REMARK   17  A    between atoms: _45  and  _46
REMARK   18  A    between atoms: _45  and  _48
REMARK   19  A    between atoms: _48  and  _49
REMARK   20  A    between atoms: _51  and  _53
REMARK   21  A    between atoms: _53  and  _54
REMARK   22  A    between atoms: _53  and  _56
REMARK   23  A    between atoms: _59  and  _61
REMARK   24  A    between atoms: _61  and  _62
REMARK   25  A    between atoms: _61  and  _64
REMARK   26  A    between atoms: _66  and  _68
REMARK   27  A    between atoms: _68  and  _69
REMARK   28  A    between atoms: _72  and  _74
REMARK   29  A    between atoms: _74  and  _75
REMARK   30  A    between atoms: _78  and  _80
REMARK   31  A    between atoms: _80  and  _81
REMARK   32  A    between atoms: _80  and  _83
REMARK   33  A    between atoms: _83  and  _84
REMARK   34  A    between atoms: _84  and  _85
REMARK   35  A    between atoms: _85  and  _86
REMARK   36  A    between atoms: _95  and  _97
REMARK   37  A    between atoms: _97  and  _98
REMARK   38  A    between atoms: _97  and  _100
REMARK   39  A    between atoms: _103  and  _105
REMARK   40  A    between atoms: _105  and  _106
REMARK   41  A    between atoms: _109  and  _111
REMARK   42  A    between atoms: _111  and  _112
REMARK   43  A    between atoms: _111  and  _114
REMARK   44  A    between atoms: _117  and  _119
REMARK   45  A    between atoms: _119  and  _120
REMARK   46  A    between atoms: _119  and  _122
REMARK   47  A    between atoms: _122  and  _123
REMARK   48  A    between atoms: _123  and  _124
REMARK   49  A    between atoms: _124  and  _125
REMARK   50  A    between atoms: _125  and  _126
REMARK   51  A    between atoms: _130  and  _132
REMARK   52  A    between atoms: _132  and  _133
REMARK   53  A    between atoms: _132  and  _135
REMARK   54  A    between atoms: _135  and  _136
REMARK   55  A    between atoms: _136  and  _137
REMARK   56  A    between atoms: _137  and  _138
REMARK   57  A    between atoms: _138  and  _139
REMARK   58  A    between atoms: _143  and  _145
REMARK   59  A    between atoms: _145  and  _146
REMARK   60  A    between atoms: _145  and  _148
REMARK   61  A    between atoms: _148  and  _149
REMARK   62  A    between atoms: _152  and  _154
REMARK   63  A    between atoms: _154  and  _155
REMARK   64  A    between atoms: _154  and  _157
REMARK   65  A    between atoms: _157  and  _158
REMARK   66  A    between atoms: _161  and  _163
REMARK   67  A    between atoms: _163  and  _164
REMARK   68  A    between atoms: _163  and  _166
REMARK   69  A    between atoms: _166  and  _167
REMARK   70  A    between atoms: _172  and  _174
REMARK   71  A    between atoms: _174  and  _175
REMARK   72  A    between atoms: _174  and  _177
REMARK   73  A    between atoms: _177  and  _178
REMARK   74  A    between atoms: _178  and  _179
REMARK   75  A    between atoms: _179  and  _180
REMARK   76  A    between atoms: _180  and  _181
REMARK   77  A    between atoms: _185  and  _187
REMARK   78  A    between atoms: _187  and  _188
REMARK   79  A    between atoms: _187  and  _190
REMARK   80  A    between atoms: _190  and  _191
REMARK   81  A    between atoms: _191  and  _192
REMARK   82  A    between atoms: _192  and  _193
REMARK   83  A    between atoms: _202  and  _204
REMARK   84  A    between atoms: _204  and  _205
REMARK   85  A    between atoms: _204  and  _207
REMARK   86  A    between atoms: _207  and  _208
REMARK   87  A    between atoms: _211  and  _213
REMARK   88  A    between atoms: _213  and  _214
REMARK   89  A    between atoms: _213  and  _216
REMARK   90  A    between atoms: _216  and  _217
REMARK   91  A    between atoms: _222  and  _223
REMARK   92  A    between atoms: _225  and  _227
REMARK   93  A    between atoms: _227  and  _228
REMARK   94  A    between atoms: _227  and  _230
REMARK   95  A    between atoms: _230  and  _231
REMARK   96  A    between atoms: _231  and  _232
REMARK   97  A    between atoms: _232  and  _233
REMARK   98  A    between atoms: _242  and  _244
REMARK   99  A    between atoms: _244  and  _245
REMARK  100  A    between atoms: _244  and  _247
REMARK  101  A    between atoms: _247  and  _248
REMARK  102  A    between atoms: _248  and  _249
REMARK  103  A    between atoms: _252  and  _254
REMARK  104  A    between atoms: _254  and  _255
REMARK  105  A    between atoms: _254  and  _257
REMARK  106  A    between atoms: _257  and  _258
REMARK  107  A    between atoms: _261  and  _263
REMARK  108  A    between atoms: _263  and  _264
REMARK  109  A    between atoms: _263  and  _266
REMARK  110  A    between atoms: _266  and  _267
REMARK  111  A    between atoms: _267  and  _268
REMARK  112  A    between atoms: _268  and  _269
REMARK  113  A    between atoms: _278  and  _280
REMARK  114  A    between atoms: _280  and  _281
REMARK  115  A    between atoms: _280  and  _283
REMARK  116  A    between atoms: _283  and  _284
REMARK  117  A    between atoms: _287  and  _289
REMARK  118  A    between atoms: _289  and  _290
REMARK  119  A    between atoms: _289  and  _292
REMARK  120  A    between atoms: _292  and  _293
REMARK  121  A    between atoms: _296  and  _298
REMARK  122  A    between atoms: _298  and  _299
REMARK  123  A    between atoms: _298  and  _301
REMARK  124  A    between atoms: _301  and  _302
REMARK  125  A    between atoms: _307  and  _309
REMARK  126  A    between atoms: _309  and  _310
REMARK  127  A    between atoms: _309  and  _312
REMARK  128  A    between atoms: _312  and  _313
REMARK  129  A    between atoms: _313  and  _314
REMARK  130  A    between atoms: _316  and  _318
REMARK  131  A    between atoms: _318  and  _319
REMARK  132  A    between atoms: _318  and  _321
REMARK  133  A    between atoms: _321  and  _322
REMARK  134  A    between atoms: _327  and  _329
REMARK  135  A    between atoms: _329  and  _330
REMARK  136  A    between atoms: _329  and  _332
REMARK  137  A    between atoms: _335  and  _337
REMARK  138  A    between atoms: _337  and  _338
REMARK  139  A    between atoms: _337  and  _340
REMARK  140  A    between atoms: _340  and  _341
REMARK  141  A    between atoms: _344  and  _346
REMARK  142  A    between atoms: _346  and  _347
REMARK  143  A    between atoms: _349  and  _351
REMARK  144  A    between atoms: _351  and  _352
REMARK  145  A    between atoms: _351  and  _354
REMARK  146  A    between atoms: _354  and  _355
REMARK  147  A    between atoms: _358  and  _360
REMARK  148  A    between atoms: _360  and  _361
REMARK  149  A    between atoms: _360  and  _363
REMARK  150  A    between atoms: _363  and  _364
REMARK  151  A    between atoms: _367  and  _369
REMARK  152  A    between atoms: _369  and  _370
REMARK  153  A    between atoms: _369  and  _372
REMARK  154  A    between atoms: _372  and  _373
REMARK  155  A    between atoms: _376  and  _378
REMARK  156  A    between atoms: _378  and  _379
REMARK  157  A    between atoms: _378  and  _381
REMARK  158  A    between atoms: _381  and  _382
REMARK  159  A    between atoms: _387  and  _388
REMARK  160  A    between atoms: _390  and  _392
REMARK  161  A    between atoms: _392  and  _393
REMARK  162  A    between atoms: _392  and  _395
REMARK  163  A    between atoms: _395  and  _396
REMARK  164  A    between atoms: _399  and  _401
REMARK  165  A    between atoms: _401  and  _402
REMARK  166  A    between atoms: _401  and  _404
REMARK  167  A    between atoms: _407  and  _409
REMARK  168  A    between atoms: _409  and  _410
REMARK  169  A    between atoms: _409  and  _412
REMARK  170  A    between atoms: _412  and  _413
REMARK  171  A    between atoms: _416  and  _418
REMARK  172  A    between atoms: _418  and  _419
REMARK  173  A    between atoms: _418  and  _421
REMARK  174  A    between atoms: _421  and  _422
REMARK  175  A    between atoms: _427  and  _429
REMARK  176  A    between atoms: _429  and  _430
REMARK  177  A    between atoms: _429  and  _432
REMARK  178  A    between atoms: _432  and  _433
REMARK  179  A    between atoms: _436  and  _438
REMARK  180  A    between atoms: _438  and  _439
REMARK  181  A    between atoms: _438  and  _441
REMARK  182  A    between atoms: _441  and  _442
REMARK  183  A    between atoms: _442  and  _443
REMARK  184  A    between atoms: _445  and  _447
REMARK  185  A    between atoms: _447  and  _448
REMARK  186  A    between atoms: _450  and  _452
REMARK  187  A    between atoms: _452  and  _453
REMARK  188  A    between atoms: _456  and  _458
REMARK  189  A    between atoms: _458  and  _459
REMARK  190  A    between atoms: _458  and  _461
REMARK  191  A    between atoms: _461  and  _462
REMARK  192  A    between atoms: _465  and  _467
REMARK  193  A    between atoms: _467  and  _468
REMARK  194  A    between atoms: _467  and  _470
REMARK  195  A    between atoms: _470  and  _471
REMARK  196  A    between atoms: _476  and  _477
REMARK  197  A    between atoms: _479  and  _481
REMARK  198  A    between atoms: _481  and  _482
REMARK  199  A    between atoms: _481  and  _484
REMARK  200  A    between atoms: _484  and  _485
REMARK  201  A    between atoms: _488  and  _490
REMARK  202  A    between atoms: _490  and  _491
REMARK  203  A    between atoms: _490  and  _493
REMARK  204  A    between atoms: _493  and  _494
REMARK  205  A    between atoms: _497  and  _499
REMARK  206  A    between atoms: _499  and  _500
REMARK  207  A    between atoms: _499  and  _502
REMARK  208  A    between atoms: _502  and  _503
REMARK  209  A    between atoms: _506  and  _508
REMARK  210  A    between atoms: _508  and  _509
REMARK  211  A    between atoms: _508  and  _511
REMARK  212  A    between atoms: _511  and  _512
REMARK  213  A    between atoms: _517  and  _519
REMARK  214  A    between atoms: _519  and  _520
REMARK  215  A    between atoms: _519  and  _522
REMARK  216  A    between atoms: _522  and  _523
REMARK  217  A    between atoms: _523  and  _524
REMARK  218  A    between atoms: _524  and  _525
REMARK  219  A    between atoms: _534  and  _536
REMARK  220  A    between atoms: _536  and  _537
REMARK  221  A    between atoms: _536  and  _539
REMARK  222  A    between atoms: _539  and  _540
REMARK  223  A    between atoms: _543  and  _545
REMARK  224  A    between atoms: _545  and  _546
REMARK  225  A    between atoms: _545  and  _548
REMARK  226  A    between atoms: _548  and  _549
REMARK  227  A    between atoms: _552  and  _554
REMARK  228  A    between atoms: _554  and  _555
REMARK  229  A    between atoms: _554  and  _557
REMARK  230  A    between atoms: _557  and  _558
REMARK  231  A    between atoms: _563  and  _565
REMARK  232  A    between atoms: _565  and  _566
REMARK  233  A    between atoms: _565  and  _568
REMARK  234  A    between atoms: _568  and  _569
REMARK  235  A    between atoms: _572  and  _574
REMARK  236  A    between atoms: _574  and  _575
REMARK  237  A    between atoms: _578  and  _580
REMARK  238  A    between atoms: _580  and  _581
REMARK  239  A    between atoms: _580  and  _583
REMARK  240  A    between atoms: _583  and  _584
REMARK  241  A    between atoms: _584  and  _585
REMARK  242  A    between atoms: _585  and  _586
REMARK  243  A    between atoms: _586  and  _587
REMARK  244  A    between atoms: _591  and  _593
REMARK  245  A    between atoms: _593  and  _594
REMARK  246  A    between atoms: _593  and  _596
REMARK  247  A    between atoms: _596  and  _597
REMARK  248  A    between atoms: _600  and  _602
REMARK  249  A    between atoms: _602  and  _603
REMARK  250  A    between atoms: _602  and  _605
REMARK  251  A    between atoms: _605  and  _606
REMARK  252  A    between atoms: _609  and  _611
REMARK  253  A    between atoms: _611  and  _612
REMARK  254  A    between atoms: _611  and  _614
REMARK  255  A    between atoms: _614  and  _615
REMARK  256  A    between atoms: _618  and  _620
REMARK  257  A    between atoms: _620  and  _621
REMARK  258  A    between atoms: _620  and  _623
REMARK  259  A    between atoms: _623  and  _624
REMARK  260  A    between atoms: _630  and  _632
REMARK  261  A    between atoms: _632  and  _633
REMARK  262  A    between atoms: _635  and  _637
REMARK  263  A    between atoms: _637  and  _638
REMARK  264  A    between atoms: _637  and  _640
REMARK  265  A    between atoms: _640  and  _641
REMARK  266  A    between atoms: _644  and  _646
REMARK  267  A    between atoms: _646  and  _647
REMARK  268  A    between atoms: _646  and  _649
REMARK  269  A    between atoms: _649  and  _650
REMARK  270  A    between atoms: _653  and  _655
REMARK  271  A    between atoms: _655  and  _656
REMARK  272  A    between atoms: _655  and  _658
REMARK  273  A    between atoms: _658  and  _659
REMARK  274  A    between atoms: _664  and  _665
REMARK  275  A    between atoms: _667  and  _669
REMARK  276  A    between atoms: _669  and  _670
REMARK  277  A    between atoms: _669  and  _672
REMARK  278  A    between atoms: _672  and  _673
REMARK  279  A    between atoms: _673  and  _674
REMARK                            x       y       z     vdW  Elec       q    Type
REMARK                         _______ _______ _______ _____ _____    ______ ____
ROOT
ATOM      1  C   ILE A   3      15.927  -7.862   6.846  0.00  0.00    +0.241 C 
ATOM      2  N   GLY A   4      14.865  -7.946   7.635  0.00  0.00    -0.295 N 
ATOM      3  H   GLY A   4      14.618  -7.111   8.204  0.00  0.00    +0.150 HD
ATOM      4  O   ILE A   3      16.404  -8.817   6.259  0.00  0.00    -0.273 OA
ENDROOT
BRANCH   2   5
ATOM      5  CA  GLY A   4      14.017  -9.130   7.762  0.00  0.00    +0.176 C 
BRANCH   5   6
ATOM      6  C   GLY A   4      12.609  -8.911   7.212  0.00  0.00    +0.243 C 
ATOM      7  O   GLY A   4      12.109  -7.784   7.156  0.00  0.00    -0.273 OA
ATOM      8  N   LEU A   5      11.969  -9.992   6.774  0.00  0.00    -0.297 N 
ATOM      9  H   LEU A   5      12.432 -10.921   6.830  0.00  0.00    +0.150 HD
BRANCH   8  10
ATOM     10  CA  LEU A   5      10.619  -9.888   6.214  0.00  0.00    +0.149 C 
BRANCH  10  11
ATOM     11  C   LEU A   5       9.623 -10.080   7.343  0.00  0.00    +0.241 C 
ATOM     12  O   LEU A   5       9.585 -11.158   7.931  0.00  0.00    -0.273 OA
ATOM     13  N   LEU A   6       8.800  -9.063   7.610  0.00  0.00    -0.297 N 
ATOM     14  H   LEU A   6       8.908  -8.176   7.078  0.00  0.00    +0.150 HD
BRANCH  13  15
ATOM     15  CA  LEU A   6       7.740  -9.155   8.637  0.00  0.00    +0.149 C 
BRANCH  15  16
ATOM     16  C   LEU A   6       6.510  -9.852   8.081  0.00  0.00    +0.241 C 
ATOM     17  O   LEU A   6       5.824 -10.575   8.776  0.00  0.00    -0.273 OA
ATOM     18  N   ASP A   7       6.251  -9.618   6.803  0.00  0.00    -0.298 N 
ATOM     19  H   ASP A   7       6.928  -9.060   6.244  0.00  0.00    +0.150 HD
BRANCH  18  20
ATOM     20  CA  ASP A   7       5.059 -10.114   6.165  0.00  0.00    +0.148 C 
BRANCH  20  21
ATOM     21  C   ASP A   7       5.265  -9.987   4.656  0.00  0.00    +0.227 C 
ATOM     22  O   ASP A   7       6.112  -9.212   4.192  0.00  0.00    -0.286 OA
ENDBRANCH  20  21
BRANCH  20  23
ATOM     23  CB  ASP A   7       3.833  -9.309   6.661  0.00  0.00    +0.142 C 
BRANCH  23  24
ATOM     24  CG  ASP A   7       2.500  -9.988   6.374  0.00  0.00    +0.367 C 
ATOM     25  OD2 ASP A   7       1.465  -9.275   6.386  0.00  0.00    -0.246 OA
ATOM     26  OD1 ASP A   7       2.478 -11.214   6.113  0.00  0.00    -0.246 OA
ENDBRANCH  23  24
ENDBRANCH  20  23
ENDBRANCH  18  20
ENDBRANCH  15  16
BRANCH  15  27
ATOM     27  CB  LEU A   6       7.345  -7.765   9.112  0.00  0.00    +0.029 C 
BRANCH  27  28
ATOM     28  CG  LEU A   6       7.902  -7.252  10.430  0.00  0.00    +0.002 C 
ATOM     29  CD2 LEU A   6       9.300  -7.731  10.707  0.00  0.00    +0.000 C 
ATOM     30  CD1 LEU A   6       7.796  -5.750  10.483  0.00  0.00    +0.000 C 
ENDBRANCH  27  28
ENDBRANCH  15  27
ENDBRANCH  13  15
ENDBRANCH  10  11
BRANCH  10  31
ATOM     31  CB  LEU A   5      10.382 -11.009   5.220  0.00  0.00    +0.029 C 
BRANCH  31  32
ATOM     32  CG  LEU A   5      10.002 -10.794   3.770  0.00  0.00    +0.002 C 
ATOM     33  CD2 LEU A   5       9.190  -9.508   3.458  0.00  0.00    +0.000 C 
ATOM     34  CD1 LEU A   5       9.363 -12.065   3.240  0.00  0.00    +0.000 C 
ENDBRANCH  31  32
ENDBRANCH  10  31
ENDBRANCH   8  10
ENDBRANCH   5   6
ENDBRANCH   2   5
BRANCH   1  35
ATOM     35  CA  ILE A   3      16.586  -6.478   6.762  0.00  0.00    +0.149 C 
BRANCH  35  38
ATOM     36  C   VAL A   2      18.603  -7.204   7.911  0.00  0.00    +0.241 C 
ATOM     37  O   VAL A   2      17.978  -7.684   8.866  0.00  0.00    -0.273 OA
ATOM     38  N   ILE A   3      18.035  -6.550   6.900  0.00  0.00    -0.297 N 
ATOM     39  H   ILE A   3      18.638  -6.081   6.194  0.00  0.00    +0.150 HD
BRANCH  36  40
ATOM     40  CA  VAL A   2      20.103  -7.351   7.848  0.00  0.00    +0.148 C 
BRANCH  40  42
ATOM     41  C   ASN A   1      21.636  -6.537   9.518  0.00  0.00    +0.239 C 
ATOM     42  N   VAL A   2      20.558  -7.252   9.233  0.00  0.00    -0.297 N 
ATOM     43  H   VAL A   2      20.039  -7.740   9.990  0.00  0.00    +0.150 HD
ATOM     44  O   ASN A   1      22.272  -5.940   8.653  0.00  0.00    -0.274 OA
BRANCH  41  45
ATOM     45  CA  ASN A   1      22.043  -6.478  10.982  0.00  0.00    +0.154 C 
BRANCH  45  46
ATOM     46  N   ASN A   1      21.508  -7.581  11.793  0.00  0.00    -0.238 NA
ATOM     47  H   ASN A   1      21.981  -8.507  11.782  0.00  0.00    +0.142 HD
ENDBRANCH  45  46
BRANCH  45  48
ATOM     48  CB  ASN A   1      23.564  -6.374  11.116  0.00  0.00    +0.111 C 
BRANCH  48  49
ATOM     49  CG  ASN A   1      24.009  -6.153  12.576  0.00  0.00    +0.221 C 
ATOM     50  OD1 ASN A   1      24.630  -7.023  13.196  0.00  0.00    -0.275 OA
ATOM     51  ND2 ASN A   1      23.647  -5.007  13.126  0.00  0.00    -0.329 N 
ATOM     52 HD21 ASN A   1      23.884  -4.809  14.119  0.00  0.00    +0.145 HD
ATOM     53 HD22 ASN A   1      23.125  -4.303  12.566  0.00  0.00    +0.145 HD
ENDBRANCH  48  49
ENDBRANCH  45  48
ENDBRANCH  41  45
ENDBRANCH  40  42
BRANCH  40  54
ATOM     54  CB  VAL A   2      20.402  -8.740   7.213  0.00  0.00    +0.027 C 
ATOM     55  CG2 VAL A   2      21.874  -9.043   7.191  0.00  0.00    +0.002 C 
ATOM     56  CG1 VAL A   2      19.848  -8.813   5.776  0.00  0.00    +0.002 C 
ENDBRANCH  40  54
ENDBRANCH  36  40
ENDBRANCH  35  38
BRANCH  35  57
ATOM     57  CB  ILE A   3      16.190  -5.711   5.464  0.00  0.00    +0.027 C 
ATOM     58  CG2 ILE A   3      16.522  -6.533   4.210  0.00  0.00    +0.002 C 
BRANCH  57  59
ATOM     59  CG1 ILE A   3      14.738  -5.205   5.531  0.00  0.00    +0.002 C 
ATOM     60  CD1 ILE A   3      14.492  -4.103   6.672  0.00  0.00    +0.000 C 
ENDBRANCH  57  59
ENDBRANCH  35  57
ENDBRANCH   1  35
TORSDOF 25
REMARK  Name = ../refined-set-2016/3gcu/3gcu_pocket.pdb
REMARK  279 active torsions:
REMARK  status: ('A' for Active; 'I' for Inactive)
REMARK    1  A    between atoms: _2  and  _3
REMARK    2  A    between atoms: _8  and  _10
REMARK    3  A    between atoms: _10  and  _11
REMARK    4  A    between atoms: _10  and  _13
REMARK    5  A    between atoms: _16  and  _18
REMARK    6  A    between atoms: _18  and  _19
REMARK    7  A    between atoms: _21  and  _23
REMARK    8  A    between atoms: _23  and  _24
REMARK    9  A    between atoms: _23  and  _26
REMARK   10  A    between atoms: _26  and  _27
REMARK   11  A    between atoms: _29  and  _31
REMARK   12  A    between atoms: _31  and  _32
REMARK   13  A    between atoms: _31  and  _34
REMARK   14  A    between atoms: _34  and  _35
REMARK   15  A    between atoms: _40  and  _41
REMARK   16  A    between atoms: _43  and  _45
REMARK   17  A    between atoms: _45  and  _46
REMARK   18  A    between atoms: _45  and  _48
REMARK   19  A    between atoms: _48  and  _49
REMARK   20  A    between atoms: _51  and  _53
REMARK   21  A    between atoms: _53  and  _54
REMARK   22  A    between atoms: _53  and  _56
REMARK   23  A    between atoms: _59  and  _61
REMARK   24  A    between atoms: _61  and  _62
REMARK   25  A    between atoms: _61  and  _64
REMARK   26  A    between atoms: _66  and  _68
REMARK   27  A    between atoms: _68  and  _69
REMARK   28  A    between atoms: _72  and  _74
REMARK   29  A    between atoms: _74  and  _75
REMARK   30  A    between atoms: _78  and  _80
REMARK   31  A    between atoms: _80  and  _81
REMARK   32  A    between atoms: _80  and  _83
REMARK   33  A    between atoms: _83  and  _84
REMARK   34  A    between atoms: _84  and  _85
REMARK   35  A    between atoms: _85  and  _86
REMARK   36  A    between atoms: _95  and  _97
REMARK   37  A    between atoms: _97  and  _98
REMARK   38  A    between atoms: _97  and  _100
REMARK   39  A    between atoms: _103  and  _105
REMARK   40  A    between atoms: _105  and  _106
REMARK   41  A    between atoms: _109  and  _111
REMARK   42  A    between atoms: _111  and  _112
REMARK   43  A    between atoms: _111  and  _114
REMARK   44  A    between atoms: _117  and  _119
REMARK   45  A    between atoms: _119  and  _120
REMARK   46  A    between atoms: _119  and  _122
REMARK   47  A    between atoms: _122  and  _123
REMARK   48  A    between atoms: _123  and  _124
REMARK   49  A    between atoms: _124  and  _125
REMARK   50  A    between atoms: _125  and  _126
REMARK   51  A    between atoms: _130  and  _132
REMARK   52  A    between atoms: _132  and  _133
REMARK   53  A    between atoms: _132  and  _135
REMARK   54  A    between atoms: _135  and  _136
REMARK   55  A    between atoms: _136  and  _137
REMARK   56  A    between atoms: _137  and  _138
REMARK   57  A    between atoms: _138  and  _139
REMARK   58  A    between atoms: _143  and  _145
REMARK   59  A    between atoms: _145  and  _146
REMARK   60  A    between atoms: _145  and  _148
REMARK   61  A    between atoms: _148  and  _149
REMARK   62  A    between atoms: _152  and  _154
REMARK   63  A    between atoms: _154  and  _155
REMARK   64  A    between atoms: _154  and  _157
REMARK   65  A    between atoms: _157  and  _158
REMARK   66  A    between atoms: _161  and  _163
REMARK   67  A    between atoms: _163  and  _164
REMARK   68  A    between atoms: _163  and  _166
REMARK   69  A    between atoms: _166  and  _167
REMARK   70  A    between atoms: _172  and  _174
REMARK   71  A    between atoms: _174  and  _175
REMARK   72  A    between atoms: _174  and  _177
REMARK   73  A    between atoms: _177  and  _178
REMARK   74  A    between atoms: _178  and  _179
REMARK   75  A    between atoms: _179  and  _180
REMARK   76  A    between atoms: _180  and  _181
REMARK   77  A    between atoms: _185  and  _187
REMARK   78  A    between atoms: _187  and  _188
REMARK   79  A    between atoms: _187  and  _190
REMARK   80  A    between atoms: _190  and  _191
REMARK   81  A    between atoms: _191  and  _192
REMARK   82  A    between atoms: _192  and  _193
REMARK   83  A    between atoms: _202  and  _204
REMARK   84  A    between atoms: _204  and  _205
REMARK   85  A    between atoms: _204  and  _207
REMARK   86  A    between atoms: _207  and  _208
REMARK   87  A    between atoms: _211  and  _213
REMARK   88  A    between atoms: _213  and  _214
REMARK   89  A    between atoms: _213  and  _216
REMARK   90  A    between atoms: _216  and  _217
REMARK   91  A    between atoms: _222  and  _223
REMARK   92  A    between atoms: _225  and  _227
REMARK   93  A    between atoms: _227  and  _228
REMARK   94  A    between atoms: _227  and  _230
REMARK   95  A    between atoms: _230  and  _231
REMARK   96  A    between atoms: _231  and  _232
REMARK   97  A    between atoms: _232  and  _233
REMARK   98  A    between atoms: _242  and  _244
REMARK   99  A    between atoms: _244  and  _245
REMARK  100  A    between atoms: _244  and  _247
REMARK  101  A    between atoms: _247  and  _248
REMARK  102  A    between atoms: _248  and  _249
REMARK  103  A    between atoms: _252  and  _254
REMARK  104  A    between atoms: _254  and  _255
REMARK  105  A    between atoms: _254  and  _257
REMARK  106  A    between atoms: _257  and  _258
REMARK  107  A    between atoms: _261  and  _263
REMARK  108  A    between atoms: _263  and  _264
REMARK  109  A    between atoms: _263  and  _266
REMARK  110  A    between atoms: _266  and  _267
REMARK  111  A    between atoms: _267  and  _268
REMARK  112  A    between atoms: _268  and  _269
REMARK  113  A    between atoms: _278  and  _280
REMARK  114  A    between atoms: _280  and  _281
REMARK  115  A    between atoms: _280  and  _283
REMARK  116  A    between atoms: _283  and  _284
REMARK  117  A    between atoms: _287  and  _289
REMARK  118  A    between atoms: _289  and  _290
REMARK  119  A    between atoms: _289  and  _292
REMARK  120  A    between atoms: _292  and  _293
REMARK  121  A    between atoms: _296  and  _298
REMARK  122  A    between atoms: _298  and  _299
REMARK  123  A    between atoms: _298  and  _301
REMARK  124  A    between atoms: _301  and  _302
REMARK  125  A    between atoms: _307  and  _309
REMARK  126  A    between atoms: _309  and  _310
REMARK  127  A    between atoms: _309  and  _312
REMARK  128  A    between atoms: _312  and  _313
REMARK  129  A    between atoms: _313  and  _314
REMARK  130  A    between atoms: _316  and  _318
REMARK  131  A    between atoms: _318  and  _319
REMARK  132  A    between atoms: _318  and  _321
REMARK  133  A    between atoms: _321  and  _322
REMARK  134  A    between atoms: _327  and  _329
REMARK  135  A    between atoms: _329  and  _330
REMARK  136  A    between atoms: _329  and  _332
REMARK  137  A    between atoms: _335  and  _337
REMARK  138  A    between atoms: _337  and  _338
REMARK  139  A    between atoms: _337  and  _340
REMARK  140  A    between atoms: _340  and  _341
REMARK  141  A    between atoms: _344  and  _346
REMARK  142  A    between atoms: _346  and  _347
REMARK  143  A    between atoms: _349  and  _351
REMARK  144  A    between atoms: _351  and  _352
REMARK  145  A    between atoms: _351  and  _354
REMARK  146  A    between atoms: _354  and  _355
REMARK  147  A    between atoms: _358  and  _360
REMARK  148  A    between atoms: _360  and  _361
REMARK  149  A    between atoms: _360  and  _363
REMARK  150  A    between atoms: _363  and  _364
REMARK  151  A    between atoms: _367  and  _369
REMARK  152  A    between atoms: _369  and  _370
REMARK  153  A    between atoms: _369  and  _372
REMARK  154  A    between atoms: _372  and  _373
REMARK  155  A    between atoms: _376  and  _378
REMARK  156  A    between atoms: _378  and  _379
REMARK  157  A    between atoms: _378  and  _381
REMARK  158  A    between atoms: _381  and  _382
REMARK  159  A    between atoms: _387  and  _388
REMARK  160  A    between atoms: _390  and  _392
REMARK  161  A    between atoms: _392  and  _393
REMARK  162  A    between atoms: _392  and  _395
REMARK  163  A    between atoms: _395  and  _396
REMARK  164  A    between atoms: _399  and  _401
REMARK  165  A    between atoms: _401  and  _402
REMARK  166  A    between atoms: _401  and  _404
REMARK  167  A    between atoms: _407  and  _409
REMARK  168  A    between atoms: _409  and  _410
REMARK  169  A    between atoms: _409  and  _412
REMARK  170  A    between atoms: _412  and  _413
REMARK  171  A    between atoms: _416  and  _418
REMARK  172  A    between atoms: _418  and  _419
REMARK  173  A    between atoms: _418  and  _421
REMARK  174  A    between atoms: _421  and  _422
REMARK  175  A    between atoms: _427  and  _429
REMARK  176  A    between atoms: _429  and  _430
REMARK  177  A    between atoms: _429  and  _432
REMARK  178  A    between atoms: _432  and  _433
REMARK  179  A    between atoms: _436  and  _438
REMARK  180  A    between atoms: _438  and  _439
REMARK  181  A    between atoms: _438  and  _441
REMARK  182  A    between atoms: _441  and  _442
REMARK  183  A    between atoms: _442  and  _443
REMARK  184  A    between atoms: _445  and  _447
REMARK  185  A    between atoms: _447  and  _448
REMARK  186  A    between atoms: _450  and  _452
REMARK  187  A    between atoms: _452  and  _453
REMARK  188  A    between atoms: _456  and  _458
REMARK  189  A    between atoms: _458  and  _459
REMARK  190  A    between atoms: _458  and  _461
REMARK  191  A    between atoms: _461  and  _462
REMARK  192  A    between atoms: _465  and  _467
REMARK  193  A    between atoms: _467  and  _468
REMARK  194  A    between atoms: _467  and  _470
REMARK  195  A    between atoms: _470  and  _471
REMARK  196  A    between atoms: _476  and  _477
REMARK  197  A    between atoms: _479  and  _481
REMARK  198  A    between atoms: _481  and  _482
REMARK  199  A    between atoms: _481  and  _484
REMARK  200  A    between atoms: _484  and  _485
REMARK  201  A    between atoms: _488  and  _490
REMARK  202  A    between atoms: _490  and  _491
REMARK  203  A    between atoms: _490  and  _493
REMARK  204  A    between atoms: _493  and  _494
REMARK  205  A    between atoms: _497  and  _499
REMARK  206  A    between atoms: _499  and  _500
REMARK  207  A    between atoms: _499  and  _502
REMARK  208  A    between atoms: _502  and  _503
REMARK  209  A    between atoms: _506  and  _508
REMARK  210  A    between atoms: _508  and  _509
REMARK  211  A    between atoms: _508  and  _511
REMARK  212  A    between atoms: _511  and  _512
REMARK  213  A    between atoms: _517  and  _519
REMARK  214  A    between atoms: _519  and  _520
REMARK  215  A    between atoms: _519  and  _522
REMARK  216  A    between atoms: _522  and  _523
REMARK  217  A    between atoms: _523  and  _524
REMARK  218  A    between atoms: _524  and  _525
REMARK  219  A    between atoms: _534  and  _536
REMARK  220  A    between atoms: _536  and  _537
REMARK  221  A    between atoms: _536  and  _539
REMARK  222  A    between atoms: _539  and  _540
REMARK  223  A    between atoms: _543  and  _545
REMARK  224  A    between atoms: _545  and  _546
REMARK  225  A    between atoms: _545  and  _548
REMARK  226  A    between atoms: _548  and  _549
REMARK  227  A    between atoms: _552  and  _554
REMARK  228  A    between atoms: _554  and  _555
REMARK  229  A    between atoms: _554  and  _557
REMARK  230  A    between atoms: _557  and  _558
REMARK  231  A    between atoms: _563  and  _565
REMARK  232  A    between atoms: _565  and  _566
REMARK  233  A    between atoms: _565  and  _568
REMARK  234  A    between atoms: _568  and  _569
REMARK  235  A    between atoms: _572  and  _574
REMARK  236  A    between atoms: _574  and  _575
REMARK  237  A    between atoms: _578  and  _580
REMARK  238  A    between atoms: _580  and  _581
REMARK  239  A    between atoms: _580  and  _583
REMARK  240  A    between atoms: _583  and  _584
REMARK  241  A    between atoms: _584  and  _585
REMARK  242  A    between atoms: _585  and  _586
REMARK  243  A    between atoms: _586  and  _587
REMARK  244  A    between atoms: _591  and  _593
REMARK  245  A    between atoms: _593  and  _594
REMARK  246  A    between atoms: _593  and  _596
REMARK  247  A    between atoms: _596  and  _597
REMARK  248  A    between atoms: _600  and  _602
REMARK  249  A    between atoms: _602  and  _603
REMARK  250  A    between atoms: _602  and  _605
REMARK  251  A    between atoms: _605  and  _606
REMARK  252  A    between atoms: _609  and  _611
REMARK  253  A    between atoms: _611  and  _612
REMARK  254  A    between atoms: _611  and  _614
REMARK  255  A    between atoms: _614  and  _615
REMARK  256  A    between atoms: _618  and  _620
REMARK  257  A    between atoms: _620  and  _621
REMARK  258  A    between atoms: _620  and  _623
REMARK  259  A    between atoms: _623  and  _624
REMARK  260  A    between atoms: _630  and  _632
REMARK  261  A    between atoms: _632  and  _633
REMARK  262  A    between atoms: _635  and  _637
REMARK  263  A    between atoms: _637  and  _638
REMARK  264  A    between atoms: _637  and  _640
REMARK  265  A    between atoms: _640  and  _641
REMARK  266  A    between atoms: _644  and  _646
REMARK  267  A    between atoms: _646  and  _647
REMARK  268  A    between atoms: _646  and  _649
REMARK  269  A    between atoms: _649  and  _650
REMARK  270  A    between atoms: _653  and  _655
REMARK  271  A    between atoms: _655  and  _656
REMARK  272  A    between atoms: _655  and  _658
REMARK  273  A    between atoms: _658  and  _659
REMARK  274  A    between atoms: _664  and  _665
REMARK  275  A    between atoms: _667  and  _669
REMARK  276  A    between atoms: _669  and  _670
REMARK  277  A    between atoms: _669  and  _672
REMARK  278  A    between atoms: _672  and  _673
REMARK  279  A    between atoms: _673  and  _674
REMARK                            x       y       z     vdW  Elec       q    Type
REMARK                         _______ _______ _______ _____ _____    ______ ____
ROOT
ATOM      1  C   THR A   4       9.419  -3.803   8.007  0.00  0.00    +0.243 C 
ATOM      2  N   HIS A   5      10.260  -3.805   9.043  0.00  0.00    -0.297 N 
ATOM      3  H   HIS A   5      10.891  -4.621   9.176  0.00  0.00    +0.150 HD
ATOM      4  O   THR A   4       8.540  -2.985   7.883  0.00  0.00    -0.273 OA
ENDROOT
BRANCH   2   5
ATOM      5  CA  HIS A   5      10.324  -2.698   9.998  0.00  0.00    +0.155 C 
BRANCH   5   6
ATOM      6  C   HIS A   5      10.644  -1.396   9.283  0.00  0.00    +0.241 C 
ATOM      7  N   LEU A   6       9.944  -0.330   9.654  0.00  0.00    -0.297 N 
ATOM      8  H   LEU A   6       9.215  -0.430  10.389  0.00  0.00    +0.150 HD
ATOM      9  O   HIS A   5      11.527  -1.369   8.418  0.00  0.00    -0.273 OA
BRANCH   7  10
ATOM     10  CA  LEU A   6      10.175   0.967   9.057  0.00  0.00    +0.149 C 
BRANCH  10  11
ATOM     11  C   LEU A   6      11.512   1.523   9.532  0.00  0.00    +0.241 C 
ATOM     12  O   LEU A   6      11.792   1.567  10.724  0.00  0.00    -0.273 OA
ATOM     13  N   MET A   7      12.359   1.911   8.586  0.00  0.00    -0.297 N 
ATOM     14  H   MET A   7      12.099   1.816   7.584  0.00  0.00    +0.150 HD
BRANCH  13  15
ATOM     15  CA  MET A   7      13.655   2.471   8.954  0.00  0.00    +0.149 C 
BRANCH  15  16
ATOM     16  C   MET A   7      13.587   4.003   8.995  0.00  0.00    +0.241 C 
ATOM     17  N   GLY A   8      14.230   4.591   9.999  0.00  0.00    -0.295 N 
ATOM     18  H   GLY A   8      14.784   4.016  10.665  0.00  0.00    +0.150 HD
ATOM     19  O   MET A   7      12.929   4.640   8.171  0.00  0.00    -0.273 OA
BRANCH  17  20
ATOM     20  CA  GLY A   8      14.164   6.043  10.173  0.00  0.00    +0.176 C 
BRANCH  20  21
ATOM     21  C   GLY A   8      15.064   6.699   9.142  0.00  0.00    +0.243 C 
ATOM     22  N   ALA A   9      16.352   6.656   9.437  0.00  0.00    -0.298 N 
ATOM     23  H   ALA A   9      16.660   6.107  10.265  0.00  0.00    +0.150 HD
ATOM     24  O   GLY A   8      14.617   7.197   8.095  0.00  0.00    -0.273 OA
BRANCH  22  25
ATOM     25  CA  ALA A   9      17.339   7.343   8.652  0.00  0.00    +0.137 C 
ATOM     26  CB  ALA A   9      18.092   8.335   9.541  0.00  0.00    +0.030 C 
BRANCH  25  27
ATOM     27  C   ALA A   9      18.283   6.310   8.082  0.00  0.00    +0.227 C 
ATOM     28  O   ALA A   9      18.308   5.161   8.522  0.00  0.00    -0.286 OA
ENDBRANCH  25  27
ENDBRANCH  22  25
ENDBRANCH  20  21
ENDBRANCH  17  20
ENDBRANCH  15  16
BRANCH  15  29
ATOM     29  CB  MET A   7      14.750   1.940   8.046  0.00  0.00    +0.041 C 
BRANCH  29  30
ATOM     30  CG  MET A   7      14.669   0.420   7.864  0.00  0.00    +0.060 C 
BRANCH  30  31
ATOM     31  SD  MET A   7      15.376  -0.683   9.143  0.00  0.00    -0.139 S 
ATOM     32  CE  MET A   7      14.260  -0.500  10.535  0.00  0.00    +0.069 C 
ENDBRANCH  30  31
ENDBRANCH  29  30
ENDBRANCH  15  29
ENDBRANCH  13  15
ENDBRANCH  10  11
BRANCH  10  33
ATOM     33  CB  LEU A   6       9.052   1.930   9.381  0.00  0.00    +0.029 C 
BRANCH  33  34
ATOM     34  CG  LEU A   6       9.103   3.342   8.768  0.00  0.00    +0.002 C 
ATOM     35  CD2 LEU A   6       8.025   4.266   9.376  0.00  0.00    +0.000 C 
ATOM     36  CD1 LEU A   6       9.039   3.298   7.226  0.00  0.00    +0.000 C 
ENDBRANCH  33  34
ENDBRANCH  10  33
ENDBRANCH   7  10
ENDBRANCH   5   6
BRANCH   5  37
ATOM     37  CB  HIS A   5      11.398  -2.935  11.063  0.00  0.00    +0.076 C 
BRANCH  37  38
ATOM     38  CG  HIS A   5      11.104  -4.083  11.972  0.00  0.00    +0.082 A 
ATOM     39  ND1 HIS A   5      10.195  -3.998  13.008  0.00  0.00    -0.227 NA
ATOM     40  CE1 HIS A   5      10.134  -5.162  13.636  0.00  0.00    +0.199 A 
ATOM     41  NE2 HIS A   5      10.977  -5.996  13.051  0.00  0.00    -0.221 NA
ATOM     42  CD2 HIS A   5      11.597  -5.347  12.006  0.00  0.00    +0.115 A 
ENDBRANCH  37  38
ENDBRANCH   5  37
ENDBRANCH   2   5
BRANCH   1  43
ATOM     43  CA  THR A   4       9.614  -4.874   6.925  0.00  0.00    +0.176 C 
BRANCH  43  45
ATOM     44  C   VAL A   3       7.841  -5.943   5.581  0.00  0.00    +0.241 C 
ATOM     45  N   THR A   4       8.453  -4.839   6.018  0.00  0.00    -0.295 N 
ATOM     46  H   THR A   4       8.095  -3.914   5.704  0.00  0.00    +0.150 HD
ATOM     47  O   VAL A   3       8.275  -7.090   5.769  0.00  0.00    -0.273 OA
BRANCH  44  48
ATOM     48  CA  VAL A   3       6.587  -5.701   4.761  0.00  0.00    +0.149 C 
BRANCH  48  50
ATOM     49  C   LEU A   2       6.570  -6.002   2.333  0.00  0.00    +0.241 C 
ATOM     50  N   VAL A   3       6.633  -6.530   3.545  0.00  0.00    -0.297 N 
ATOM     51  H   VAL A   3       6.718  -7.562   3.641  0.00  0.00    +0.150 HD
ATOM     52  O   LEU A   2       6.558  -4.812   2.122  0.00  0.00    -0.273 OA
BRANCH  49  53
ATOM     53  CA  LEU A   2       6.605  -6.963   1.168  0.00  0.00    +0.149 C 
BRANCH  53  56
ATOM     54  C   TYR A   1       4.536  -7.237  -0.124  0.00  0.00    +0.239 C 
ATOM     55  O   TYR A   1       4.283  -8.342   0.364  0.00  0.00    -0.274 OA
ATOM     56  N   LEU A   2       5.603  -6.519   0.210  0.00  0.00    -0.297 N 
ATOM     57  H   LEU A   2       5.729  -5.589  -0.238  0.00  0.00    +0.150 HD
BRANCH  54  58
ATOM     58  CA  TYR A   1       3.643  -6.633  -1.193  0.00  0.00    +0.149 C 
BRANCH  58  59
ATOM     59  N   TYR A   1       3.289  -7.681  -2.119  0.00  0.00    -0.238 NA
ATOM     60  H   TYR A   1       2.885  -8.569  -1.758  0.00  0.00    +0.142 HD
ENDBRANCH  58  59
BRANCH  58  61
ATOM     61  CB  TYR A   1       2.392  -6.098  -0.540  0.00  0.00    +0.053 C 
BRANCH  61  62
ATOM     62  CG  TYR A   1       1.375  -5.381  -1.404  0.00  0.00    -0.020 A 
ATOM     63  CD2 TYR A   1       1.210  -4.005  -1.291  0.00  0.00    -0.001 A 
ATOM     64  CE2 TYR A   1       0.246  -3.322  -2.045  0.00  0.00    +0.036 A 
ATOM     65  CZ  TYR A   1      -0.608  -4.028  -2.883  0.00  0.00    +0.134 A 
ATOM     66  CE1 TYR A   1      -0.504  -5.400  -2.984  0.00  0.00    +0.036 A 
ATOM     67  CD1 TYR A   1       0.487  -6.085  -2.227  0.00  0.00    -0.001 A 
BRANCH  65  68
ATOM     68  OH  TYR A   1      -1.588  -3.340  -3.596  0.00  0.00    -0.506 OA
ATOM     69  HH  TYR A   1      -2.109  -3.981  -4.142  0.00  0.00    +0.292 HD
ENDBRANCH  65  68
ENDBRANCH  61  62
ENDBRANCH  58  61
ENDBRANCH  54  58
ENDBRANCH  53  56
BRANCH  53  70
ATOM     70  CB  LEU A   2       8.012  -6.850   0.557  0.00  0.00    +0.029 C 
BRANCH  70  71
ATOM     71  CG  LEU A   2       8.216  -7.637  -0.740  0.00  0.00    +0.002 C 
ATOM     72  CD2 LEU A   2       8.062  -9.141  -0.459  0.00  0.00    +0.000 C 
ATOM     73  CD1 LEU A   2       9.566  -7.345  -1.324  0.00  0.00    +0.000 C 
ENDBRANCH  70  71
ENDBRANCH  53  70
ENDBRANCH  49  53
ENDBRANCH  48  50
BRANCH  48  74
ATOM     74  CB  VAL A   3       5.293  -6.005   5.606  0.00  0.00    +0.027 C 
ATOM     75  CG2 VAL A   3       5.128  -5.029   6.828  0.00  0.00    +0.002 C 
ATOM     76  CG1 VAL A   3       4.090  -5.953   4.698  0.00  0.00    +0.002 C 
ENDBRANCH  48  74
ENDBRANCH  44  48
ENDBRANCH  43  45
BRANCH  43  77
ATOM     77  CB  THR A   4      10.930  -4.530   6.160  0.00  0.00    +0.137 C 
ATOM     78  CG2 THR A   4      11.178  -5.486   4.996  0.00  0.00    +0.034 C 
BRANCH  77  79
ATOM     79  OG1 THR A   4      10.791  -3.210   5.593  0.00  0.00    -0.382 OA
ATOM     80  HG1 THR A   4      11.618  -2.974   5.103  0.00  0.00    +0.210 HD
ENDBRANCH  77  79
ENDBRANCH  43  77
ENDBRANCH   1  43
TORSDOF 33
REMARK  Name = ../refined-set-2016/3gcu/3gcu_pocket.pdb
REMARK  279 active torsions:
REMARK  status: ('A' for Active; 'I' for Inactive)
REMARK    1  A    between atoms: _2  and  _3
REMARK    2  A    between atoms: _8  and  _10
REMARK    3  A    between atoms: _10  and  _11
REMARK    4  A    between atoms: _10  and  _13
REMARK    5  A    between atoms: _16  and  _18
REMARK    6  A    between atoms: _18  and  _19
REMARK    7  A    between atoms: _21  and  _23
REMARK    8  A    between atoms: _23  and  _24
REMARK    9  A    between atoms: _23  and  _26
REMARK   10  A    between atoms: _26  and  _27
REMARK   11  A    between atoms: _29  and  _31
REMARK   12  A    between atoms: _31  and  _32
REMARK   13  A    between atoms: _31  and  _34
REMARK   14  A    between atoms: _34  and  _35
REMARK   15  A    between atoms: _40  and  _41
REMARK   16  A    between atoms: _43  and  _45
REMARK   17  A    between atoms: _45  and  _46
REMARK   18  A    between atoms: _45  and  _48
REMARK   19  A    between atoms: _48  and  _49
REMARK   20  A    between atoms: _51  and  _53
REMARK   21  A    between atoms: _53  and  _54
REMARK   22  A    between atoms: _53  and  _56
REMARK   23  A    between atoms: _59  and  _61
REMARK   24  A    between atoms: _61  and  _62
REMARK   25  A    between atoms: _61  and  _64
REMARK   26  A    between atoms: _66  and  _68
REMARK   27  A    between atoms: _68  and  _69
REMARK   28  A    between atoms: _72  and  _74
REMARK   29  A    between atoms: _74  and  _75
REMARK   30  A    between atoms: _78  and  _80
REMARK   31  A    between atoms: _80  and  _81
REMARK   32  A    between atoms: _80  and  _83
REMARK   33  A    between atoms: _83  and  _84
REMARK   34  A    between atoms: _84  and  _85
REMARK   35  A    between atoms: _85  and  _86
REMARK   36  A    between atoms: _95  and  _97
REMARK   37  A    between atoms: _97  and  _98
REMARK   38  A    between atoms: _97  and  _100
REMARK   39  A    between atoms: _103  and  _105
REMARK   40  A    between atoms: _105  and  _106
REMARK   41  A    between atoms: _109  and  _111
REMARK   42  A    between atoms: _111  and  _112
REMARK   43  A    between atoms: _111  and  _114
REMARK   44  A    between atoms: _117  and  _119
REMARK   45  A    between atoms: _119  and  _120
REMARK   46  A    between atoms: _119  and  _122
REMARK   47  A    between atoms: _122  and  _123
REMARK   48  A    between atoms: _123  and  _124
REMARK   49  A    between atoms: _124  and  _125
REMARK   50  A    between atoms: _125  and  _126
REMARK   51  A    between atoms: _130  and  _132
REMARK   52  A    between atoms: _132  and  _133
REMARK   53  A    between atoms: _132  and  _135
REMARK   54  A    between atoms: _135  and  _136
REMARK   55  A    between atoms: _136  and  _137
REMARK   56  A    between atoms: _137  and  _138
REMARK   57  A    between atoms: _138  and  _139
REMARK   58  A    between atoms: _143  and  _145
REMARK   59  A    between atoms: _145  and  _146
REMARK   60  A    between atoms: _145  and  _148
REMARK   61  A    between atoms: _148  and  _149
REMARK   62  A    between atoms: _152  and  _154
REMARK   63  A    between atoms: _154  and  _155
REMARK   64  A    between atoms: _154  and  _157
REMARK   65  A    between atoms: _157  and  _158
REMARK   66  A    between atoms: _161  and  _163
REMARK   67  A    between atoms: _163  and  _164
REMARK   68  A    between atoms: _163  and  _166
REMARK   69  A    between atoms: _166  and  _167
REMARK   70  A    between atoms: _172  and  _174
REMARK   71  A    between atoms: _174  and  _175
REMARK   72  A    between atoms: _174  and  _177
REMARK   73  A    between atoms: _177  and  _178
REMARK   74  A    between atoms: _178  and  _179
REMARK   75  A    between atoms: _179  and  _180
REMARK   76  A    between atoms: _180  and  _181
REMARK   77  A    between atoms: _185  and  _187
REMARK   78  A    between atoms: _187  and  _188
REMARK   79  A    between atoms: _187  and  _190
REMARK   80  A    between atoms: _190  and  _191
REMARK   81  A    between atoms: _191  and  _192
REMARK   82  A    between atoms: _192  and  _193
REMARK   83  A    between atoms: _202  and  _204
REMARK   84  A    between atoms: _204  and  _205
REMARK   85  A    between atoms: _204  and  _207
REMARK   86  A    between atoms: _207  and  _208
REMARK   87  A    between atoms: _211  and  _213
REMARK   88  A    between atoms: _213  and  _214
REMARK   89  A    between atoms: _213  and  _216
REMARK   90  A    between atoms: _216  and  _217
REMARK   91  A    between atoms: _222  and  _223
REMARK   92  A    between atoms: _225  and  _227
REMARK   93  A    between atoms: _227  and  _228
REMARK   94  A    between atoms: _227  and  _230
REMARK   95  A    between atoms: _230  and  _231
REMARK   96  A    between atoms: _231  and  _232
REMARK   97  A    between atoms: _232  and  _233
REMARK   98  A    between atoms: _242  and  _244
REMARK   99  A    between atoms: _244  and  _245
REMARK  100  A    between atoms: _244  and  _247
REMARK  101  A    between atoms: _247  and  _248
REMARK  102  A    between atoms: _248  and  _249
REMARK  103  A    between atoms: _252  and  _254
REMARK  104  A    between atoms: _254  and  _255
REMARK  105  A    between atoms: _254  and  _257
REMARK  106  A    between atoms: _257  and  _258
REMARK  107  A    between atoms: _261  and  _263
REMARK  108  A    between atoms: _263  and  _264
REMARK  109  A    between atoms: _263  and  _266
REMARK  110  A    between atoms: _266  and  _267
REMARK  111  A    between atoms: _267  and  _268
REMARK  112  A    between atoms: _268  and  _269
REMARK  113  A    between atoms: _278  and  _280
REMARK  114  A    between atoms: _280  and  _281
REMARK  115  A    between atoms: _280  and  _283
REMARK  116  A    between atoms: _283  and  _284
REMARK  117  A    between atoms: _287  and  _289
REMARK  118  A    between atoms: _289  and  _290
REMARK  119  A    between atoms: _289  and  _292
REMARK  120  A    between atoms: _292  and  _293
REMARK  121  A    between atoms: _296  and  _298
REMARK  122  A    between atoms: _298  and  _299
REMARK  123  A    between atoms: _298  and  _301
REMARK  124  A    between atoms: _301  and  _302
REMARK  125  A    between atoms: _307  and  _309
REMARK  126  A    between atoms: _309  and  _310
REMARK  127  A    between atoms: _309  and  _312
REMARK  128  A    between atoms: _312  and  _313
REMARK  129  A    between atoms: _313  and  _314
REMARK  130  A    between atoms: _316  and  _318
REMARK  131  A    between atoms: _318  and  _319
REMARK  132  A    between atoms: _318  and  _321
REMARK  133  A    between atoms: _321  and  _322
REMARK  134  A    between atoms: _327  and  _329
REMARK  135  A    between atoms: _329  and  _330
REMARK  136  A    between atoms: _329  and  _332
REMARK  137  A    between atoms: _335  and  _337
REMARK  138  A    between atoms: _337  and  _338
REMARK  139  A    between atoms: _337  and  _340
REMARK  140  A    between atoms: _340  and  _341
REMARK  141  A    between atoms: _344  and  _346
REMARK  142  A    between atoms: _346  and  _347
REMARK  143  A    between atoms: _349  and  _351
REMARK  144  A    between atoms: _351  and  _352
REMARK  145  A    between atoms: _351  and  _354
REMARK  146  A    between atoms: _354  and  _355
REMARK  147  A    between atoms: _358  and  _360
REMARK  148  A    between atoms: _360  and  _361
REMARK  149  A    between atoms: _360  and  _363
REMARK  150  A    between atoms: _363  and  _364
REMARK  151  A    between atoms: _367  and  _369
REMARK  152  A    between atoms: _369  and  _370
REMARK  153  A    between atoms: _369  and  _372
REMARK  154  A    between atoms: _372  and  _373
REMARK  155  A    between atoms: _376  and  _378
REMARK  156  A    between atoms: _378  and  _379
REMARK  157  A    between atoms: _378  and  _381
REMARK  158  A    between atoms: _381  and  _382
REMARK  159  A    between atoms: _387  and  _388
REMARK  160  A    between atoms: _390  and  _392
REMARK  161  A    between atoms: _392  and  _393
REMARK  162  A    between atoms: _392  and  _395
REMARK  163  A    between atoms: _395  and  _396
REMARK  164  A    between atoms: _399  and  _401
REMARK  165  A    between atoms: _401  and  _402
REMARK  166  A    between atoms: _401  and  _404
REMARK  167  A    between atoms: _407  and  _409
REMARK  168  A    between atoms: _409  and  _410
REMARK  169  A    between atoms: _409  and  _412
REMARK  170  A    between atoms: _412  and  _413
REMARK  171  A    between atoms: _416  and  _418
REMARK  172  A    between atoms: _418  and  _419
REMARK  173  A    between atoms: _418  and  _421
REMARK  174  A    between atoms: _421  and  _422
REMARK  175  A    between atoms: _427  and  _429
REMARK  176  A    between atoms: _429  and  _430
REMARK  177  A    between atoms: _429  and  _432
REMARK  178  A    between atoms: _432  and  _433
REMARK  179  A    between atoms: _436  and  _438
REMARK  180  A    between atoms: _438  and  _439
REMARK  181  A    between atoms: _438  and  _441
REMARK  182  A    between atoms: _441  and  _442
REMARK  183  A    between atoms: _442  and  _443
REMARK  184  A    between atoms: _445  and  _447
REMARK  185  A    between atoms: _447  and  _448
REMARK  186  A    between atoms: _450  and  _452
REMARK  187  A    between atoms: _452  and  _453
REMARK  188  A    between atoms: _456  and  _458
REMARK  189  A    between atoms: _458  and  _459
REMARK  190  A    between atoms: _458  and  _461
REMARK  191  A    between atoms: _461  and  _462
REMARK  192  A    between atoms: _465  and  _467
REMARK  193  A    between atoms: _467  and  _468
REMARK  194  A    between atoms: _467  and  _470
REMARK  195  A    between atoms: _470  and  _471
REMARK  196  A    between atoms: _476  and  _477
REMARK  197  A    between atoms: _479  and  _481
REMARK  198  A    between atoms: _481  and  _482
REMARK  199  A    between atoms: _481  and  _484
REMARK  200  A    between atoms: _484  and  _485
REMARK  201  A    between atoms: _488  and  _490
REMARK  202  A    between atoms: _490  and  _491
REMARK  203  A    between atoms: _490  and  _493
REMARK  204  A    between atoms: _493  and  _494
REMARK  205  A    between atoms: _497  and  _499
REMARK  206  A    between atoms: _499  and  _500
REMARK  207  A    between atoms: _499  and  _502
REMARK  208  A    between atoms: _502  and  _503
REMARK  209  A    between atoms: _506  and  _508
REMARK  210  A    between atoms: _508  and  _509
REMARK  211  A    between atoms: _508  and  _511
REMARK  212  A    between atoms: _511  and  _512
REMARK  213  A    between atoms: _517  and  _519
REMARK  214  A    between atoms: _519  and  _520
REMARK  215  A    between atoms: _519  and  _522
REMARK  216  A    between atoms: _522  and  _523
REMARK  217  A    between atoms: _523  and  _524
REMARK  218  A    between atoms: _524  and  _525
REMARK  219  A    between atoms: _534  and  _536
REMARK  220  A    between atoms: _536  and  _537
REMARK  221  A    between atoms: _536  and  _539
REMARK  222  A    between atoms: _539  and  _540
REMARK  223  A    between atoms: _543  and  _545
REMARK  224  A    between atoms: _545  and  _546
REMARK  225  A    between atoms: _545  and  _548
REMARK  226  A    between atoms: _548  and  _549
REMARK  227  A    between atoms: _552  and  _554
REMARK  228  A    between atoms: _554  and  _555
REMARK  229  A    between atoms: _554  and  _557
REMARK  230  A    between atoms: _557  and  _558
REMARK  231  A    between atoms: _563  and  _565
REMARK  232  A    between atoms: _565  and  _566
REMARK  233  A    between atoms: _565  and  _568
REMARK  234  A    between atoms: _568  and  _569
REMARK  235  A    between atoms: _572  and  _574
REMARK  236  A    between atoms: _574  and  _575
REMARK  237  A    between atoms: _578  and  _580
REMARK  238  A    between atoms: _580  and  _581
REMARK  239  A    between atoms: _580  and  _583
REMARK  240  A    between atoms: _583  and  _584
REMARK  241  A    between atoms: _584  and  _585
REMARK  242  A    between atoms: _585  and  _586
REMARK  243  A    between atoms: _586  and  _587
REMARK  244  A    between atoms: _591  and  _593
REMARK  245  A    between atoms: _593  and  _594
REMARK  246  A    between atoms: _593  and  _596
REMARK  247  A    between atoms: _596  and  _597
REMARK  248  A    between atoms: _600  and  _602
REMARK  249  A    between atoms: _602  and  _603
REMARK  250  A    between atoms: _602  and  _605
REMARK  251  A    between atoms: _605  and  _606
REMARK  252  A    between atoms: _609  and  _611
REMARK  253  A    between atoms: _611  and  _612
REMARK  254  A    between atoms: _611  and  _614
REMARK  255  A    between atoms: _614  and  _615
REMARK  256  A    between atoms: _618  and  _620
REMARK  257  A    between atoms: _620  and  _621
REMARK  258  A    between atoms: _620  and  _623
REMARK  259  A    between atoms: _623  and  _624
REMARK  260  A    between atoms: _630  and  _632
REMARK  261  A    between atoms: _632  and  _633
REMARK  262  A    between atoms: _635  and  _637
REMARK  263  A    between atoms: _637  and  _638
REMARK  264  A    between atoms: _637  and  _640
REMARK  265  A    between atoms: _640  and  _641
REMARK  266  A    between atoms: _644  and  _646
REMARK  267  A    between atoms: _646  and  _647
REMARK  268  A    between atoms: _646  and  _649
REMARK  269  A    between atoms: _649  and  _650
REMARK  270  A    between atoms: _653  and  _655
REMARK  271  A    between atoms: _655  and  _656
REMARK  272  A    between atoms: _655  and  _658
REMARK  273  A    between atoms: _658  and  _659
REMARK  274  A    between atoms: _664  and  _665
REMARK  275  A    between atoms: _667  and  _669
REMARK  276  A    between atoms: _669  and  _670
REMARK  277  A    between atoms: _669  and  _672
REMARK  278  A    between atoms: _672  and  _673
REMARK  279  A    between atoms: _673  and  _674
REMARK                            x       y       z     vdW  Elec       q    Type
REMARK                         _______ _______ _______ _____ _____    ______ ____
ROOT
ATOM      1  CA  LEU A   1      27.997  -8.794   5.722  0.00  0.00    +0.133 C 
ENDROOT
BRANCH   1   2
ATOM      2  N   LEU A   1      27.293  -8.313   6.923  0.00  0.00    -0.239 NA
ATOM      3  H   LEU A   1      27.653  -7.472   7.417  0.00  0.00    +0.142 HD
ENDBRANCH   1   2
BRANCH   1   4
ATOM      4  C   LEU A   1      28.558 -10.194   5.849  0.00  0.00    +0.224 C 
ATOM      5  O   LEU A   1      28.497 -10.976   4.906  0.00  0.00    -0.287 OA
ENDBRANCH   1   4
BRANCH   1   6
ATOM      6  CB  LEU A   1      29.148  -7.836   5.347  0.00  0.00    +0.025 C 
BRANCH   6   7
ATOM      7  CG  LEU A   1      29.150  -7.047   4.047  0.00  0.00    +0.002 C 
ATOM      8  CD2 LEU A   1      30.615  -6.868   3.578  0.00  0.00    +0.000 C 
ATOM      9  CD1 LEU A   1      28.255  -7.642   2.890  0.00  0.00    +0.000 C 
ENDBRANCH   6   7
ENDBRANCH   1   6
TORSDOF 4
REMARK  Name = ../refined-set-2016/3gcu/3gcu_pocket.pdb
REMARK  279 active torsions:
REMARK  status: ('A' for Active; 'I' for Inactive)
REMARK    1  A    between atoms: _2  and  _3
REMARK    2  A    between atoms: _8  and  _10
REMARK    3  A    between atoms: _10  and  _11
REMARK    4  A    between atoms: _10  and  _13
REMARK    5  A    between atoms: _16  and  _18
REMARK    6  A    between atoms: _18  and  _19
REMARK    7  A    between atoms: _21  and  _23
REMARK    8  A    between atoms: _23  and  _24
REMARK    9  A    between atoms: _23  and  _26
REMARK   10  A    between atoms: _26  and  _27
REMARK   11  A    between atoms: _29  and  _31
REMARK   12  A    between atoms: _31  and  _32
REMARK   13  A    between atoms: _31  and  _34
REMARK   14  A    between atoms: _34  and  _35
REMARK   15  A    between atoms: _40  and  _41
REMARK   16  A    between atoms: _43  and  _45
REMARK   17  A    between atoms: _45  and  _46
REMARK   18  A    between atoms: _45  and  _48
REMARK   19  A    between atoms: _48  and  _49
REMARK   20  A    between atoms: _51  and  _53
REMARK   21  A    between atoms: _53  and  _54
REMARK   22  A    between atoms: _53  and  _56
REMARK   23  A    between atoms: _59  and  _61
REMARK   24  A    between atoms: _61  and  _62
REMARK   25  A    between atoms: _61  and  _64
REMARK   26  A    between atoms: _66  and  _68
REMARK   27  A    between atoms: _68  and  _69
REMARK   28  A    between atoms: _72  and  _74
REMARK   29  A    between atoms: _74  and  _75
REMARK   30  A    between atoms: _78  and  _80
REMARK   31  A    between atoms: _80  and  _81
REMARK   32  A    between atoms: _80  and  _83
REMARK   33  A    between atoms: _83  and  _84
REMARK   34  A    between atoms: _84  and  _85
REMARK   35  A    between atoms: _85  and  _86
REMARK   36  A    between atoms: _95  and  _97
REMARK   37  A    between atoms: _97  and  _98
REMARK   38  A    between atoms: _97  and  _100
REMARK   39  A    between atoms: _103  and  _105
REMARK   40  A    between atoms: _105  and  _106
REMARK   41  A    between atoms: _109  and  _111
REMARK   42  A    between atoms: _111  and  _112
REMARK   43  A    between atoms: _111  and  _114
REMARK   44  A    between atoms: _117  and  _119
REMARK   45  A    between atoms: _119  and  _120
REMARK   46  A    between atoms: _119  and  _122
REMARK   47  A    between atoms: _122  and  _123
REMARK   48  A    between atoms: _123  and  _124
REMARK   49  A    between atoms: _124  and  _125
REMARK   50  A    between atoms: _125  and  _126
REMARK   51  A    between atoms: _130  and  _132
REMARK   52  A    between atoms: _132  and  _133
REMARK   53  A    between atoms: _132  and  _135
REMARK   54  A    between atoms: _135  and  _136
REMARK   55  A    between atoms: _136  and  _137
REMARK   56  A    between atoms: _137  and  _138
REMARK   57  A    between atoms: _138  and  _139
REMARK   58  A    between atoms: _143  and  _145
REMARK   59  A    between atoms: _145  and  _146
REMARK   60  A    between atoms: _145  and  _148
REMARK   61  A    between atoms: _148  and  _149
REMARK   62  A    between atoms: _152  and  _154
REMARK   63  A    between atoms: _154  and  _155
REMARK   64  A    between atoms: _154  and  _157
REMARK   65  A    between atoms: _157  and  _158
REMARK   66  A    between atoms: _161  and  _163
REMARK   67  A    between atoms: _163  and  _164
REMARK   68  A    between atoms: _163  and  _166
REMARK   69  A    between atoms: _166  and  _167
REMARK   70  A    between atoms: _172  and  _174
REMARK   71  A    between atoms: _174  and  _175
REMARK   72  A    between atoms: _174  and  _177
REMARK   73  A    between atoms: _177  and  _178
REMARK   74  A    between atoms: _178  and  _179
REMARK   75  A    between atoms: _179  and  _180
REMARK   76  A    between atoms: _180  and  _181
REMARK   77  A    between atoms: _185  and  _187
REMARK   78  A    between atoms: _187  and  _188
REMARK   79  A    between atoms: _187  and  _190
REMARK   80  A    between atoms: _190  and  _191
REMARK   81  A    between atoms: _191  and  _192
REMARK   82  A    between atoms: _192  and  _193
REMARK   83  A    between atoms: _202  and  _204
REMARK   84  A    between atoms: _204  and  _205
REMARK   85  A    between atoms: _204  and  _207
REMARK   86  A    between atoms: _207  and  _208
REMARK   87  A    between atoms: _211  and  _213
REMARK   88  A    between atoms: _213  and  _214
REMARK   89  A    between atoms: _213  and  _216
REMARK   90  A    between atoms: _216  and  _217
REMARK   91  A    between atoms: _222  and  _223
REMARK   92  A    between atoms: _225  and  _227
REMARK   93  A    between atoms: _227  and  _228
REMARK   94  A    between atoms: _227  and  _230
REMARK   95  A    between atoms: _230  and  _231
REMARK   96  A    between atoms: _231  and  _232
REMARK   97  A    between atoms: _232  and  _233
REMARK   98  A    between atoms: _242  and  _244
REMARK   99  A    between atoms: _244  and  _245
REMARK  100  A    between atoms: _244  and  _247
REMARK  101  A    between atoms: _247  and  _248
REMARK  102  A    between atoms: _248  and  _249
REMARK  103  A    between atoms: _252  and  _254
REMARK  104  A    between atoms: _254  and  _255
REMARK  105  A    between atoms: _254  and  _257
REMARK  106  A    between atoms: _257  and  _258
REMARK  107  A    between atoms: _261  and  _263
REMARK  108  A    between atoms: _263  and  _264
REMARK  109  A    between atoms: _263  and  _266
REMARK  110  A    between atoms: _266  and  _267
REMARK  111  A    between atoms: _267  and  _268
REMARK  112  A    between atoms: _268  and  _269
REMARK  113  A    between atoms: _278  and  _280
REMARK  114  A    between atoms: _280  and  _281
REMARK  115  A    between atoms: _280  and  _283
REMARK  116  A    between atoms: _283  and  _284
REMARK  117  A    between atoms: _287  and  _289
REMARK  118  A    between atoms: _289  and  _290
REMARK  119  A    between atoms: _289  and  _292
REMARK  120  A    between atoms: _292  and  _293
REMARK  121  A    between atoms: _296  and  _298
REMARK  122  A    between atoms: _298  and  _299
REMARK  123  A    between atoms: _298  and  _301
REMARK  124  A    between atoms: _301  and  _302
REMARK  125  A    between atoms: _307  and  _309
REMARK  126  A    between atoms: _309  and  _310
REMARK  127  A    between atoms: _309  and  _312
REMARK  128  A    between atoms: _312  and  _313
REMARK  129  A    between atoms: _313  and  _314
REMARK  130  A    between atoms: _316  and  _318
REMARK  131  A    between atoms: _318  and  _319
REMARK  132  A    between atoms: _318  and  _321
REMARK  133  A    between atoms: _321  and  _322
REMARK  134  A    between atoms: _327  and  _329
REMARK  135  A    between atoms: _329  and  _330
REMARK  136  A    between atoms: _329  and  _332
REMARK  137  A    between atoms: _335  and  _337
REMARK  138  A    between atoms: _337  and  _338
REMARK  139  A    between atoms: _337  and  _340
REMARK  140  A    between atoms: _340  and  _341
REMARK  141  A    between atoms: _344  and  _346
REMARK  142  A    between atoms: _346  and  _347
REMARK  143  A    between atoms: _349  and  _351
REMARK  144  A    between atoms: _351  and  _352
REMARK  145  A    between atoms: _351  and  _354
REMARK  146  A    between atoms: _354  and  _355
REMARK  147  A    between atoms: _358  and  _360
REMARK  148  A    between atoms: _360  and  _361
REMARK  149  A    between atoms: _360  and  _363
REMARK  150  A    between atoms: _363  and  _364
REMARK  151  A    between atoms: _367  and  _369
REMARK  152  A    between atoms: _369  and  _370
REMARK  153  A    between atoms: _369  and  _372
REMARK  154  A    between atoms: _372  and  _373
REMARK  155  A    between atoms: _376  and  _378
REMARK  156  A    between atoms: _378  and  _379
REMARK  157  A    between atoms: _378  and  _381
REMARK  158  A    between atoms: _381  and  _382
REMARK  159  A    between atoms: _387  and  _388
REMARK  160  A    between atoms: _390  and  _392
REMARK  161  A    between atoms: _392  and  _393
REMARK  162  A    between atoms: _392  and  _395
REMARK  163  A    between atoms: _395  and  _396
REMARK  164  A    between atoms: _399  and  _401
REMARK  165  A    between atoms: _401  and  _402
REMARK  166  A    between atoms: _401  and  _404
REMARK  167  A    between atoms: _407  and  _409
REMARK  168  A    between atoms: _409  and  _410
REMARK  169  A    between atoms: _409  and  _412
REMARK  170  A    between atoms: _412  and  _413
REMARK  171  A    between atoms: _416  and  _418
REMARK  172  A    between atoms: _418  and  _419
REMARK  173  A    between atoms: _418  and  _421
REMARK  174  A    between atoms: _421  and  _422
REMARK  175  A    between atoms: _427  and  _429
REMARK  176  A    between atoms: _429  and  _430
REMARK  177  A    between atoms: _429  and  _432
REMARK  178  A    between atoms: _432  and  _433
REMARK  179  A    between atoms: _436  and  _438
REMARK  180  A    between atoms: _438  and  _439
REMARK  181  A    between atoms: _438  and  _441
REMARK  182  A    between atoms: _441  and  _442
REMARK  183  A    between atoms: _442  and  _443
REMARK  184  A    between atoms: _445  and  _447
REMARK  185  A    between atoms: _447  and  _448
REMARK  186  A    between atoms: _450  and  _452
REMARK  187  A    between atoms: _452  and  _453
REMARK  188  A    between atoms: _456  and  _458
REMARK  189  A    between atoms: _458  and  _459
REMARK  190  A    between atoms: _458  and  _461
REMARK  191  A    between atoms: _461  and  _462
REMARK  192  A    between atoms: _465  and  _467
REMARK  193  A    between atoms: _467  and  _468
REMARK  194  A    between atoms: _467  and  _470
REMARK  195  A    between atoms: _470  and  _471
REMARK  196  A    between atoms: _476  and  _477
REMARK  197  A    between atoms: _479  and  _481
REMARK  198  A    between atoms: _481  and  _482
REMARK  199  A    between atoms: _481  and  _484
REMARK  200  A    between atoms: _484  and  _485
REMARK  201  A    between atoms: _488  and  _490
REMARK  202  A    between atoms: _490  and  _491
REMARK  203  A    between atoms: _490  and  _493
REMARK  204  A    between atoms: _493  and  _494
REMARK  205  A    between atoms: _497  and  _499
REMARK  206  A    between atoms: _499  and  _500
REMARK  207  A    between atoms: _499  and  _502
REMARK  208  A    between atoms: _502  and  _503
REMARK  209  A    between atoms: _506  and  _508
REMARK  210  A    between atoms: _508  and  _509
REMARK  211  A    between atoms: _508  and  _511
REMARK  212  A    between atoms: _511  and  _512
REMARK  213  A    between atoms: _517  and  _519
REMARK  214  A    between atoms: _519  and  _520
REMARK  215  A    between atoms: _519  and  _522
REMARK  216  A    between atoms: _522  and  _523
REMARK  217  A    between atoms: _523  and  _524
REMARK  218  A    between atoms: _524  and  _525
REMARK  219  A    between atoms: _534  and  _536
REMARK  220  A    between atoms: _536  and  _537
REMARK  221  A    between atoms: _536  and  _539
REMARK  222  A    between atoms: _539  and  _540
REMARK  223  A    between atoms: _543  and  _545
REMARK  224  A    between atoms: _545  and  _546
REMARK  225  A    between atoms: _545  and  _548
REMARK  226  A    between atoms: _548  and  _549
REMARK  227  A    between atoms: _552  and  _554
REMARK  228  A    between atoms: _554  and  _555
REMARK  229  A    between atoms: _554  and  _557
REMARK  230  A    between atoms: _557  and  _558
REMARK  231  A    between atoms: _563  and  _565
REMARK  232  A    between atoms: _565  and  _566
REMARK  233  A    between atoms: _565  and  _568
REMARK  234  A    between atoms: _568  and  _569
REMARK  235  A    between atoms: _572  and  _574
REMARK  236  A    between atoms: _574  and  _575
REMARK  237  A    between atoms: _578  and  _580
REMARK  238  A    between atoms: _580  and  _581
REMARK  239  A    between atoms: _580  and  _583
REMARK  240  A    between atoms: _583  and  _584
REMARK  241  A    between atoms: _584  and  _585
REMARK  242  A    between atoms: _585  and  _586
REMARK  243  A    between atoms: _586  and  _587
REMARK  244  A    between atoms: _591  and  _593
REMARK  245  A    between atoms: _593  and  _594
REMARK  246  A    between atoms: _593  and  _596
REMARK  247  A    between atoms: _596  and  _597
REMARK  248  A    between atoms: _600  and  _602
REMARK  249  A    between atoms: _602  and  _603
REMARK  250  A    between atoms: _602  and  _605
REMARK  251  A    between atoms: _605  and  _606
REMARK  252  A    between atoms: _609  and  _611
REMARK  253  A    between atoms: _611  and  _612
REMARK  254  A    between atoms: _611  and  _614
REMARK  255  A    between atoms: _614  and  _615
REMARK  256  A    between atoms: _618  and  _620
REMARK  257  A    between atoms: _620  and  _621
REMARK  258  A    between atoms: _620  and  _623
REMARK  259  A    between atoms: _623  and  _624
REMARK  260  A    between atoms: _630  and  _632
REMARK  261  A    between atoms: _632  and  _633
REMARK  262  A    between atoms: _635  and  _637
REMARK  263  A    between atoms: _637  and  _638
REMARK  264  A    between atoms: _637  and  _640
REMARK  265  A    between atoms: _640  and  _641
REMARK  266  A    between atoms: _644  and  _646
REMARK  267  A    between atoms: _646  and  _647
REMARK  268  A    between atoms: _646  and  _649
REMARK  269  A    between atoms: _649  and  _650
REMARK  270  A    between atoms: _653  and  _655
REMARK  271  A    between atoms: _655  and  _656
REMARK  272  A    between atoms: _655  and  _658
REMARK  273  A    between atoms: _658  and  _659
REMARK  274  A    between atoms: _664  and  _665
REMARK  275  A    between atoms: _667  and  _669
REMARK  276  A    between atoms: _669  and  _670
REMARK  277  A    between atoms: _669  and  _672
REMARK  278  A    between atoms: _672  and  _673
REMARK  279  A    between atoms: _673  and  _674
REMARK                            x       y       z     vdW  Elec       q    Type
REMARK                         _______ _______ _______ _____ _____    ______ ____
ROOT
ATOM      1  CA  TYR A   1      26.037 -13.377   7.357  0.00  0.00    +0.149 C 
ENDROOT
BRANCH   1   2
ATOM      2  C   TYR A   1      25.600 -13.487   5.890  0.00  0.00    +0.239 C 
ATOM      3  O   TYR A   1      25.344 -14.588   5.397  0.00  0.00    -0.274 OA
ATOM      4  N   ILE A   2      25.510 -12.354   5.200  0.00  0.00    -0.298 N 
ATOM      5  H   ILE A   2      25.746 -11.458   5.673  0.00  0.00    +0.150 HD
BRANCH   4   6
ATOM      6  CA  ILE A   2      25.086 -12.324   3.784  0.00  0.00    +0.137 C 
BRANCH   6   7
ATOM      7  CB  ILE A   2      24.927 -10.858   3.278  0.00  0.00    +0.026 C 
ATOM      8  CG2 ILE A   2      24.790 -10.782   1.753  0.00  0.00    +0.002 C 
BRANCH   7   9
ATOM      9  CG1 ILE A   2      23.713 -10.186   3.941  0.00  0.00    +0.002 C 
ATOM     10  CD1 ILE A   2      23.668  -8.627   3.749  0.00  0.00    +0.000 C 
ENDBRANCH   7   9
ENDBRANCH   6   7
BRANCH   6  11
ATOM     11  C   ILE A   2      26.070 -13.113   2.921  0.00  0.00    +0.227 C 
ATOM     12  O   ILE A   2      25.671 -13.964   2.110  0.00  0.00    -0.286 OA
ENDBRANCH   6  11
ENDBRANCH   4   6
ENDBRANCH   1   2
BRANCH   1  13
ATOM     13  N   TYR A   1      27.254 -12.558   7.482  0.00  0.00    -0.238 NA
ATOM     14  H   TYR A   1      27.171 -11.646   7.974  0.00  0.00    +0.142 HD
ENDBRANCH   1  13
BRANCH   1  15
ATOM     15  CB  TYR A   1      24.887 -12.803   8.224  0.00  0.00    +0.053 C 
BRANCH  15  16
ATOM     16  CG  TYR A   1      23.550 -13.532   8.073  0.00  0.00    -0.020 A 
ATOM     17  CD2 TYR A   1      23.242 -14.627   8.873  0.00  0.00    -0.001 A 
ATOM     18  CE2 TYR A   1      22.051 -15.301   8.716  0.00  0.00    +0.036 A 
ATOM     19  CZ  TYR A   1      21.131 -14.870   7.764  0.00  0.00    +0.134 A 
ATOM     20  CE1 TYR A   1      21.385 -13.780   6.965  0.00  0.00    +0.036 A 
ATOM     21  CD1 TYR A   1      22.602 -13.109   7.134  0.00  0.00    -0.001 A 
BRANCH  19  22
ATOM     22  OH  TYR A   1      19.948 -15.533   7.643  0.00  0.00    -0.506 OA
ATOM     23  HH  TYR A   1      19.926 -16.286   8.285  0.00  0.00    +0.292 HD
ENDBRANCH  19  22
ENDBRANCH  15  16
ENDBRANCH   1  15
TORSDOF 9
REMARK  Name = ../refined-set-2016/3gcu/3gcu_pocket.pdb
REMARK  279 active torsions:
REMARK  status: ('A' for Active; 'I' for Inactive)
REMARK    1  A    between atoms: _2  and  _3
REMARK    2  A    between atoms: _8  and  _10
REMARK    3  A    between atoms: _10  and  _11
REMARK    4  A    between atoms: _10  and  _13
REMARK    5  A    between atoms: _16  and  _18
REMARK    6  A    between atoms: _18  and  _19
REMARK    7  A    between atoms: _21  and  _23
REMARK    8  A    between atoms: _23  and  _24
REMARK    9  A    between atoms: _23  and  _26
REMARK   10  A    between atoms: _26  and  _27
REMARK   11  A    between atoms: _29  and  _31
REMARK   12  A    between atoms: _31  and  _32
REMARK   13  A    between atoms: _31  and  _34
REMARK   14  A    between atoms: _34  and  _35
REMARK   15  A    between atoms: _40  and  _41
REMARK   16  A    between atoms: _43  and  _45
REMARK   17  A    between atoms: _45  and  _46
REMARK   18  A    between atoms: _45  and  _48
REMARK   19  A    between atoms: _48  and  _49
REMARK   20  A    between atoms: _51  and  _53
REMARK   21  A    between atoms: _53  and  _54
REMARK   22  A    between atoms: _53  and  _56
REMARK   23  A    between atoms: _59  and  _61
REMARK   24  A    between atoms: _61  and  _62
REMARK   25  A    between atoms: _61  and  _64
REMARK   26  A    between atoms: _66  and  _68
REMARK   27  A    between atoms: _68  and  _69
REMARK   28  A    between atoms: _72  and  _74
REMARK   29  A    between atoms: _74  and  _75
REMARK   30  A    between atoms: _78  and  _80
REMARK   31  A    between atoms: _80  and  _81
REMARK   32  A    between atoms: _80  and  _83
REMARK   33  A    between atoms: _83  and  _84
REMARK   34  A    between atoms: _84  and  _85
REMARK   35  A    between atoms: _85  and  _86
REMARK   36  A    between atoms: _95  and  _97
REMARK   37  A    between atoms: _97  and  _98
REMARK   38  A    between atoms: _97  and  _100
REMARK   39  A    between atoms: _103  and  _105
REMARK   40  A    between atoms: _105  and  _106
REMARK   41  A    between atoms: _109  and  _111
REMARK   42  A    between atoms: _111  and  _112
REMARK   43  A    between atoms: _111  and  _114
REMARK   44  A    between atoms: _117  and  _119
REMARK   45  A    between atoms: _119  and  _120
REMARK   46  A    between atoms: _119  and  _122
REMARK   47  A    between atoms: _122  and  _123
REMARK   48  A    between atoms: _123  and  _124
REMARK   49  A    between atoms: _124  and  _125
REMARK   50  A    between atoms: _125  and  _126
REMARK   51  A    between atoms: _130  and  _132
REMARK   52  A    between atoms: _132  and  _133
REMARK   53  A    between atoms: _132  and  _135
REMARK   54  A    between atoms: _135  and  _136
REMARK   55  A    between atoms: _136  and  _137
REMARK   56  A    between atoms: _137  and  _138
REMARK   57  A    between atoms: _138  and  _139
REMARK   58  A    between atoms: _143  and  _145
REMARK   59  A    between atoms: _145  and  _146
REMARK   60  A    between atoms: _145  and  _148
REMARK   61  A    between atoms: _148  and  _149
REMARK   62  A    between atoms: _152  and  _154
REMARK   63  A    between atoms: _154  and  _155
REMARK   64  A    between atoms: _154  and  _157
REMARK   65  A    between atoms: _157  and  _158
REMARK   66  A    between atoms: _161  and  _163
REMARK   67  A    between atoms: _163  and  _164
REMARK   68  A    between atoms: _163  and  _166
REMARK   69  A    between atoms: _166  and  _167
REMARK   70  A    between atoms: _172  and  _174
REMARK   71  A    between atoms: _174  and  _175
REMARK   72  A    between atoms: _174  and  _177
REMARK   73  A    between atoms: _177  and  _178
REMARK   74  A    between atoms: _178  and  _179
REMARK   75  A    between atoms: _179  and  _180
REMARK   76  A    between atoms: _180  and  _181
REMARK   77  A    between atoms: _185  and  _187
REMARK   78  A    between atoms: _187  and  _188
REMARK   79  A    between atoms: _187  and  _190
REMARK   80  A    between atoms: _190  and  _191
REMARK   81  A    between atoms: _191  and  _192
REMARK   82  A    between atoms: _192  and  _193
REMARK   83  A    between atoms: _202  and  _204
REMARK   84  A    between atoms: _204  and  _205
REMARK   85  A    between atoms: _204  and  _207
REMARK   86  A    between atoms: _207  and  _208
REMARK   87  A    between atoms: _211  and  _213
REMARK   88  A    between atoms: _213  and  _214
REMARK   89  A    between atoms: _213  and  _216
REMARK   90  A    between atoms: _216  and  _217
REMARK   91  A    between atoms: _222  and  _223
REMARK   92  A    between atoms: _225  and  _227
REMARK   93  A    between atoms: _227  and  _228
REMARK   94  A    between atoms: _227  and  _230
REMARK   95  A    between atoms: _230  and  _231
REMARK   96  A    between atoms: _231  and  _232
REMARK   97  A    between atoms: _232  and  _233
REMARK   98  A    between atoms: _242  and  _244
REMARK   99  A    between atoms: _244  and  _245
REMARK  100  A    between atoms: _244  and  _247
REMARK  101  A    between atoms: _247  and  _248
REMARK  102  A    between atoms: _248  and  _249
REMARK  103  A    between atoms: _252  and  _254
REMARK  104  A    between atoms: _254  and  _255
REMARK  105  A    between atoms: _254  and  _257
REMARK  106  A    between atoms: _257  and  _258
REMARK  107  A    between atoms: _261  and  _263
REMARK  108  A    between atoms: _263  and  _264
REMARK  109  A    between atoms: _263  and  _266
REMARK  110  A    between atoms: _266  and  _267
REMARK  111  A    between atoms: _267  and  _268
REMARK  112  A    between atoms: _268  and  _269
REMARK  113  A    between atoms: _278  and  _280
REMARK  114  A    between atoms: _280  and  _281
REMARK  115  A    between atoms: _280  and  _283
REMARK  116  A    between atoms: _283  and  _284
REMARK  117  A    between atoms: _287  and  _289
REMARK  118  A    between atoms: _289  and  _290
REMARK  119  A    between atoms: _289  and  _292
REMARK  120  A    between atoms: _292  and  _293
REMARK  121  A    between atoms: _296  and  _298
REMARK  122  A    between atoms: _298  and  _299
REMARK  123  A    between atoms: _298  and  _301
REMARK  124  A    between atoms: _301  and  _302
REMARK  125  A    between atoms: _307  and  _309
REMARK  126  A    between atoms: _309  and  _310
REMARK  127  A    between atoms: _309  and  _312
REMARK  128  A    between atoms: _312  and  _313
REMARK  129  A    between atoms: _313  and  _314
REMARK  130  A    between atoms: _316  and  _318
REMARK  131  A    between atoms: _318  and  _319
REMARK  132  A    between atoms: _318  and  _321
REMARK  133  A    between atoms: _321  and  _322
REMARK  134  A    between atoms: _327  and  _329
REMARK  135  A    between atoms: _329  and  _330
REMARK  136  A    between atoms: _329  and  _332
REMARK  137  A    between atoms: _335  and  _337
REMARK  138  A    between atoms: _337  and  _338
REMARK  139  A    between atoms: _337  and  _340
REMARK  140  A    between atoms: _340  and  _341
REMARK  141  A    between atoms: _344  and  _346
REMARK  142  A    between atoms: _346  and  _347
REMARK  143  A    between atoms: _349  and  _351
REMARK  144  A    between atoms: _351  and  _352
REMARK  145  A    between atoms: _351  and  _354
REMARK  146  A    between atoms: _354  and  _355
REMARK  147  A    between atoms: _358  and  _360
REMARK  148  A    between atoms: _360  and  _361
REMARK  149  A    between atoms: _360  and  _363
REMARK  150  A    between atoms: _363  and  _364
REMARK  151  A    between atoms: _367  and  _369
REMARK  152  A    between atoms: _369  and  _370
REMARK  153  A    between atoms: _369  and  _372
REMARK  154  A    between atoms: _372  and  _373
REMARK  155  A    between atoms: _376  and  _378
REMARK  156  A    between atoms: _378  and  _379
REMARK  157  A    between atoms: _378  and  _381
REMARK  158  A    between atoms: _381  and  _382
REMARK  159  A    between atoms: _387  and  _388
REMARK  160  A    between atoms: _390  and  _392
REMARK  161  A    between atoms: _392  and  _393
REMARK  162  A    between atoms: _392  and  _395
REMARK  163  A    between atoms: _395  and  _396
REMARK  164  A    between atoms: _399  and  _401
REMARK  165  A    between atoms: _401  and  _402
REMARK  166  A    between atoms: _401  and  _404
REMARK  167  A    between atoms: _407  and  _409
REMARK  168  A    between atoms: _409  and  _410
REMARK  169  A    between atoms: _409  and  _412
REMARK  170  A    between atoms: _412  and  _413
REMARK  171  A    between atoms: _416  and  _418
REMARK  172  A    between atoms: _418  and  _419
REMARK  173  A    between atoms: _418  and  _421
REMARK  174  A    between atoms: _421  and  _422
REMARK  175  A    between atoms: _427  and  _429
REMARK  176  A    between atoms: _429  and  _430
REMARK  177  A    between atoms: _429  and  _432
REMARK  178  A    between atoms: _432  and  _433
REMARK  179  A    between atoms: _436  and  _438
REMARK  180  A    between atoms: _438  and  _439
REMARK  181  A    between atoms: _438  and  _441
REMARK  182  A    between atoms: _441  and  _442
REMARK  183  A    between atoms: _442  and  _443
REMARK  184  A    between atoms: _445  and  _447
REMARK  185  A    between atoms: _447  and  _448
REMARK  186  A    between atoms: _450  and  _452
REMARK  187  A    between atoms: _452  and  _453
REMARK  188  A    between atoms: _456  and  _458
REMARK  189  A    between atoms: _458  and  _459
REMARK  190  A    between atoms: _458  and  _461
REMARK  191  A    between atoms: _461  and  _462
REMARK  192  A    between atoms: _465  and  _467
REMARK  193  A    between atoms: _467  and  _468
REMARK  194  A    between atoms: _467  and  _470
REMARK  195  A    between atoms: _470  and  _471
REMARK  196  A    between atoms: _476  and  _477
REMARK  197  A    between atoms: _479  and  _481
REMARK  198  A    between atoms: _481  and  _482
REMARK  199  A    between atoms: _481  and  _484
REMARK  200  A    between atoms: _484  and  _485
REMARK  201  A    between atoms: _488  and  _490
REMARK  202  A    between atoms: _490  and  _491
REMARK  203  A    between atoms: _490  and  _493
REMARK  204  A    between atoms: _493  and  _494
REMARK  205  A    between atoms: _497  and  _499
REMARK  206  A    between atoms: _499  and  _500
REMARK  207  A    between atoms: _499  and  _502
REMARK  208  A    between atoms: _502  and  _503
REMARK  209  A    between atoms: _506  and  _508
REMARK  210  A    between atoms: _508  and  _509
REMARK  211  A    between atoms: _508  and  _511
REMARK  212  A    between atoms: _511  and  _512
REMARK  213  A    between atoms: _517  and  _519
REMARK  214  A    between atoms: _519  and  _520
REMARK  215  A    between atoms: _519  and  _522
REMARK  216  A    between atoms: _522  and  _523
REMARK  217  A    between atoms: _523  and  _524
REMARK  218  A    between atoms: _524  and  _525
REMARK  219  A    between atoms: _534  and  _536
REMARK  220  A    between atoms: _536  and  _537
REMARK  221  A    between atoms: _536  and  _539
REMARK  222  A    between atoms: _539  and  _540
REMARK  223  A    between atoms: _543  and  _545
REMARK  224  A    between atoms: _545  and  _546
REMARK  225  A    between atoms: _545  and  _548
REMARK  226  A    between atoms: _548  and  _549
REMARK  227  A    between atoms: _552  and  _554
REMARK  228  A    between atoms: _554  and  _555
REMARK  229  A    between atoms: _554  and  _557
REMARK  230  A    between atoms: _557  and  _558
REMARK  231  A    between atoms: _563  and  _565
REMARK  232  A    between atoms: _565  and  _566
REMARK  233  A    between atoms: _565  and  _568
REMARK  234  A    between atoms: _568  and  _569
REMARK  235  A    between atoms: _572  and  _574
REMARK  236  A    between atoms: _574  and  _575
REMARK  237  A    between atoms: _578  and  _580
REMARK  238  A    between atoms: _580  and  _581
REMARK  239  A    between atoms: _580  and  _583
REMARK  240  A    between atoms: _583  and  _584
REMARK  241  A    between atoms: _584  and  _585
REMARK  242  A    between atoms: _585  and  _586
REMARK  243  A    between atoms: _586  and  _587
REMARK  244  A    between atoms: _591  and  _593
REMARK  245  A    between atoms: _593  and  _594
REMARK  246  A    between atoms: _593  and  _596
REMARK  247  A    between atoms: _596  and  _597
REMARK  248  A    between atoms: _600  and  _602
REMARK  249  A    between atoms: _602  and  _603
REMARK  250  A    between atoms: _602  and  _605
REMARK  251  A    between atoms: _605  and  _606
REMARK  252  A    between atoms: _609  and  _611
REMARK  253  A    between atoms: _611  and  _612
REMARK  254  A    between atoms: _611  and  _614
REMARK  255  A    between atoms: _614  and  _615
REMARK  256  A    between atoms: _618  and  _620
REMARK  257  A    between atoms: _620  and  _621
REMARK  258  A    between atoms: _620  and  _623
REMARK  259  A    between atoms: _623  and  _624
REMARK  260  A    between atoms: _630  and  _632
REMARK  261  A    between atoms: _632  and  _633
REMARK  262  A    between atoms: _635  and  _637
REMARK  263  A    between atoms: _637  and  _638
REMARK  264  A    between atoms: _637  and  _640
REMARK  265  A    between atoms: _640  and  _641
REMARK  266  A    between atoms: _644  and  _646
REMARK  267  A    between atoms: _646  and  _647
REMARK  268  A    between atoms: _646  and  _649
REMARK  269  A    between atoms: _649  and  _650
REMARK  270  A    between atoms: _653  and  _655
REMARK  271  A    between atoms: _655  and  _656
REMARK  272  A    between atoms: _655  and  _658
REMARK  273  A    between atoms: _658  and  _659
REMARK  274  A    between atoms: _664  and  _665
REMARK  275  A    between atoms: _667  and  _669
REMARK  276  A    between atoms: _669  and  _670
REMARK  277  A    between atoms: _669  and  _672
REMARK  278  A    between atoms: _672  and  _673
REMARK  279  A    between atoms: _673  and  _674
REMARK                            x       y       z     vdW  Elec       q    Type
REMARK                         _______ _______ _______ _____ _____    ______ ____
ROOT
ATOM      1  CA  ARG A   4      27.162  -5.263  -4.940  0.00  0.00    +0.149 C 
ENDROOT
BRANCH   1   2
ATOM      2  C   ARG A   4      26.853  -3.765  -4.910  0.00  0.00    +0.241 C 
ATOM      3  N   ASP A   5      25.956  -3.310  -4.036  0.00  0.00    -0.297 N 
ATOM      4  H   ASP A   5      25.478  -3.964  -3.383  0.00  0.00    +0.150 HD
ATOM      5  O   ARG A   4      27.405  -3.015  -5.728  0.00  0.00    -0.273 OA
BRANCH   3   6
ATOM      6  CA  ASP A   5      25.648  -1.864  -4.006  0.00  0.00    +0.160 C 
BRANCH   6   7
ATOM      7  C   ASP A   5      25.653  -1.294  -2.601  0.00  0.00    +0.241 C 
ATOM      8  N   LEU A   6      26.675  -1.636  -1.835  0.00  0.00    -0.298 N 
ATOM      9  H   LEU A   6      27.404  -2.277  -2.208  0.00  0.00    +0.150 HD
ATOM     10  O   ASP A   5      24.755  -0.565  -2.207  0.00  0.00    -0.273 OA
BRANCH   8  11
ATOM     11  CA  LEU A   6      26.793  -1.124  -0.467  0.00  0.00    +0.137 C 
BRANCH  11  12
ATOM     12  C   LEU A   6      27.196   0.345  -0.512  0.00  0.00    +0.227 C 
ATOM     13  O   LEU A   6      28.158   0.720  -1.204  0.00  0.00    -0.286 OA
ENDBRANCH  11  12
BRANCH  11  14
ATOM     14  CB  LEU A   6      27.825  -1.920   0.329  0.00  0.00    +0.028 C 
BRANCH  14  15
ATOM     15  CG  LEU A   6      27.436  -3.153   1.174  0.00  0.00    +0.002 C 
ATOM     16  CD2 LEU A   6      28.624  -3.491   2.102  0.00  0.00    +0.000 C 
ATOM     17  CD1 LEU A   6      26.119  -2.983   2.006  0.00  0.00    +0.000 C 
ENDBRANCH  14  15
ENDBRANCH  11  14
ENDBRANCH   8  11
ENDBRANCH   6   7
BRANCH   6  18
ATOM     18  CB  ASP A   5      24.328  -1.563  -4.718  0.00  0.00    +0.143 C 
BRANCH  18  19
ATOM     19  CG  ASP A   5      24.209  -0.099  -5.160  0.00  0.00    +0.367 C 
ATOM     20  OD2 ASP A   5      25.230   0.649  -5.175  0.00  0.00    -0.246 OA
ATOM     21  OD1 ASP A   5      23.077   0.304  -5.526  0.00  0.00    -0.246 OA
ENDBRANCH  18  19
ENDBRANCH   6  18
ENDBRANCH   3   6
ENDBRANCH   1   2
BRANCH   1  23
ATOM     22  C   HIS A   3      25.562  -6.346  -3.392  0.00  0.00    +0.241 C 
ATOM     23  N   ARG A   4      26.809  -6.011  -3.700  0.00  0.00    -0.297 N 
ATOM     24  H   ARG A   4      27.573  -6.282  -3.048  0.00  0.00    +0.150 HD
ATOM     25  O   HIS A   3      24.591  -6.072  -4.122  0.00  0.00    -0.273 OA
BRANCH  22  26
ATOM     26  CA  HIS A   3      25.372  -7.142  -2.087  0.00  0.00    +0.155 C 
BRANCH  26  28
ATOM     27  C   ILE A   2      26.053  -9.283  -2.916  0.00  0.00    +0.241 C 
ATOM     28  N   HIS A   3      26.267  -8.301  -2.047  0.00  0.00    -0.297 N 
ATOM     29  H   HIS A   3      27.046  -8.354  -1.360  0.00  0.00    +0.150 HD
ATOM     30  O   ILE A   2      25.124  -9.234  -3.738  0.00  0.00    -0.273 OA
BRANCH  27  31
ATOM     31  CA  ILE A   2      27.000 -10.472  -2.885  0.00  0.00    +0.148 C 
BRANCH  31  34
ATOM     32  C   ILE A   1      26.149 -12.403  -1.668  0.00  0.00    +0.238 C 
ATOM     33  O   ILE A   1      26.907 -12.211  -0.717  0.00  0.00    -0.274 OA
ATOM     34  N   ILE A   2      26.206 -11.681  -2.779  0.00  0.00    -0.297 N 
ATOM     35  H   ILE A   2      25.660 -11.994  -3.607  0.00  0.00    +0.150 HD
BRANCH  32  36
ATOM     36  CA  ILE A   1      25.108 -13.543  -1.643  0.00  0.00    +0.145 C 
BRANCH  36  37
ATOM     37  N   ILE A   1      25.666 -14.768  -1.069  0.00  0.00    -0.238 NA
ATOM     38  H   ILE A   1      25.709 -14.859  -0.034  0.00  0.00    +0.142 HD
ENDBRANCH  36  37
BRANCH  36  39
ATOM     39  CB  ILE A   1      23.824 -13.145  -0.871  0.00  0.00    +0.025 C 
ATOM     40  CG2 ILE A   1      23.209 -11.841  -1.408  0.00  0.00    +0.002 C 
BRANCH  39  41
ATOM     41  CG1 ILE A   1      22.809 -14.293  -0.965  0.00  0.00    +0.002 C 
ATOM     42  CD1 ILE A   1      21.816 -14.328   0.242  0.00  0.00    +0.000 C 
ENDBRANCH  39  41
ENDBRANCH  36  39
ENDBRANCH  32  36
ENDBRANCH  31  34
BRANCH  31  43
ATOM     43  CB  ILE A   2      27.918 -10.481  -4.155  0.00  0.00    +0.027 C 
ATOM     44  CG2 ILE A   2      28.805  -9.226  -4.184  0.00  0.00    +0.002 C 
BRANCH  43  45
ATOM     45  CG1 ILE A   2      28.833 -11.712  -4.127  0.00  0.00    +0.002 C 
ATOM     46  CD1 ILE A   2      29.569 -12.020  -5.441  0.00  0.00    +0.000 C 
ENDBRANCH  43  45
ENDBRANCH  31  43
ENDBRANCH  27  31
ENDBRANCH  26  28
BRANCH  26  47
ATOM     47  CB  HIS A   3      25.546  -6.257  -0.866  0.00  0.00    +0.076 C 
BRANCH  47  48
ATOM     48  CG  HIS A   3      24.576  -5.127  -0.811  0.00  0.00    +0.082 A 
ATOM     49  ND1 HIS A   3      23.555  -5.060   0.114  0.00  0.00    -0.227 NA
ATOM     50  CE1 HIS A   3      22.888  -3.928  -0.051  0.00  0.00    +0.199 A 
ATOM     51  NE2 HIS A   3      23.421  -3.286  -1.075  0.00  0.00    -0.221 NA
ATOM     52  CD2 HIS A   3      24.484  -4.008  -1.557  0.00  0.00    +0.115 A 
ENDBRANCH  47  48
ENDBRANCH  26  47
ENDBRANCH  22  26
ENDBRANCH   1  23
BRANCH   1  53
ATOM     53  CB  ARG A   4      26.540  -5.881  -6.231  0.00  0.00    +0.033 C 
BRANCH  53  54
ATOM     54  CG  ARG A   4      26.749  -7.399  -6.422  0.00  0.00    +0.045 C 
BRANCH  54  55
ATOM     55  CD  ARG A   4      26.013  -7.961  -7.687  0.00  0.00    +0.174 C 
BRANCH  55  56
ATOM     56  NE  ARG A   4      25.564  -9.358  -7.520  0.00  0.00    -0.265 N 
ATOM     57  HE  ARG A   4      24.691  -9.514  -6.977  0.00  0.00    +0.259 HD
ATOM     58  CZ  ARG A   4      26.181 -10.438  -8.006  0.00  0.00    +0.342 C 
ATOM     59  NH2 ARG A   4      25.674 -11.646  -7.769  0.00  0.00    -0.292 N 
ATOM     60 HH21 ARG A   4      24.803 -11.744  -7.209  0.00  0.00    +0.255 HD
ATOM     61 HH22 ARG A   4      26.149 -12.492  -8.144  0.00  0.00    +0.255 HD
ATOM     62  NH1 ARG A   4      27.306 -10.336  -8.718  0.00  0.00    -0.292 N 
ATOM     63 HH11 ARG A   4      27.720  -9.401  -8.905  0.00  0.00    +0.255 HD
ATOM     64 HH12 ARG A   4      27.768 -11.192  -9.086  0.00  0.00    +0.255 HD
ENDBRANCH  55  56
ENDBRANCH  54  55
ENDBRANCH  53  54
ENDBRANCH   1  53
TORSDOF 26
REMARK  Name = ../refined-set-2016/3gcu/3gcu_pocket.pdb
REMARK  279 active torsions:
REMARK  status: ('A' for Active; 'I' for Inactive)
REMARK    1  A    between atoms: _2  and  _3
REMARK    2  A    between atoms: _8  and  _10
REMARK    3  A    between atoms: _10  and  _11
REMARK    4  A    between atoms: _10  and  _13
REMARK    5  A    between atoms: _16  and  _18
REMARK    6  A    between atoms: _18  and  _19
REMARK    7  A    between atoms: _21  and  _23
REMARK    8  A    between atoms: _23  and  _24
REMARK    9  A    between atoms: _23  and  _26
REMARK   10  A    between atoms: _26  and  _27
REMARK   11  A    between atoms: _29  and  _31
REMARK   12  A    between atoms: _31  and  _32
REMARK   13  A    between atoms: _31  and  _34
REMARK   14  A    between atoms: _34  and  _35
REMARK   15  A    between atoms: _40  and  _41
REMARK   16  A    between atoms: _43  and  _45
REMARK   17  A    between atoms: _45  and  _46
REMARK   18  A    between atoms: _45  and  _48
REMARK   19  A    between atoms: _48  and  _49
REMARK   20  A    between atoms: _51  and  _53
REMARK   21  A    between atoms: _53  and  _54
REMARK   22  A    between atoms: _53  and  _56
REMARK   23  A    between atoms: _59  and  _61
REMARK   24  A    between atoms: _61  and  _62
REMARK   25  A    between atoms: _61  and  _64
REMARK   26  A    between atoms: _66  and  _68
REMARK   27  A    between atoms: _68  and  _69
REMARK   28  A    between atoms: _72  and  _74
REMARK   29  A    between atoms: _74  and  _75
REMARK   30  A    between atoms: _78  and  _80
REMARK   31  A    between atoms: _80  and  _81
REMARK   32  A    between atoms: _80  and  _83
REMARK   33  A    between atoms: _83  and  _84
REMARK   34  A    between atoms: _84  and  _85
REMARK   35  A    between atoms: _85  and  _86
REMARK   36  A    between atoms: _95  and  _97
REMARK   37  A    between atoms: _97  and  _98
REMARK   38  A    between atoms: _97  and  _100
REMARK   39  A    between atoms: _103  and  _105
REMARK   40  A    between atoms: _105  and  _106
REMARK   41  A    between atoms: _109  and  _111
REMARK   42  A    between atoms: _111  and  _112
REMARK   43  A    between atoms: _111  and  _114
REMARK   44  A    between atoms: _117  and  _119
REMARK   45  A    between atoms: _119  and  _120
REMARK   46  A    between atoms: _119  and  _122
REMARK   47  A    between atoms: _122  and  _123
REMARK   48  A    between atoms: _123  and  _124
REMARK   49  A    between atoms: _124  and  _125
REMARK   50  A    between atoms: _125  and  _126
REMARK   51  A    between atoms: _130  and  _132
REMARK   52  A    between atoms: _132  and  _133
REMARK   53  A    between atoms: _132  and  _135
REMARK   54  A    between atoms: _135  and  _136
REMARK   55  A    between atoms: _136  and  _137
REMARK   56  A    between atoms: _137  and  _138
REMARK   57  A    between atoms: _138  and  _139
REMARK   58  A    between atoms: _143  and  _145
REMARK   59  A    between atoms: _145  and  _146
REMARK   60  A    between atoms: _145  and  _148
REMARK   61  A    between atoms: _148  and  _149
REMARK   62  A    between atoms: _152  and  _154
REMARK   63  A    between atoms: _154  and  _155
REMARK   64  A    between atoms: _154  and  _157
REMARK   65  A    between atoms: _157  and  _158
REMARK   66  A    between atoms: _161  and  _163
REMARK   67  A    between atoms: _163  and  _164
REMARK   68  A    between atoms: _163  and  _166
REMARK   69  A    between atoms: _166  and  _167
REMARK   70  A    between atoms: _172  and  _174
REMARK   71  A    between atoms: _174  and  _175
REMARK   72  A    between atoms: _174  and  _177
REMARK   73  A    between atoms: _177  and  _178
REMARK   74  A    between atoms: _178  and  _179
REMARK   75  A    between atoms: _179  and  _180
REMARK   76  A    between atoms: _180  and  _181
REMARK   77  A    between atoms: _185  and  _187
REMARK   78  A    between atoms: _187  and  _188
REMARK   79  A    between atoms: _187  and  _190
REMARK   80  A    between atoms: _190  and  _191
REMARK   81  A    between atoms: _191  and  _192
REMARK   82  A    between atoms: _192  and  _193
REMARK   83  A    between atoms: _202  and  _204
REMARK   84  A    between atoms: _204  and  _205
REMARK   85  A    between atoms: _204  and  _207
REMARK   86  A    between atoms: _207  and  _208
REMARK   87  A    between atoms: _211  and  _213
REMARK   88  A    between atoms: _213  and  _214
REMARK   89  A    between atoms: _213  and  _216
REMARK   90  A    between atoms: _216  and  _217
REMARK   91  A    between atoms: _222  and  _223
REMARK   92  A    between atoms: _225  and  _227
REMARK   93  A    between atoms: _227  and  _228
REMARK   94  A    between atoms: _227  and  _230
REMARK   95  A    between atoms: _230  and  _231
REMARK   96  A    between atoms: _231  and  _232
REMARK   97  A    between atoms: _232  and  _233
REMARK   98  A    between atoms: _242  and  _244
REMARK   99  A    between atoms: _244  and  _245
REMARK  100  A    between atoms: _244  and  _247
REMARK  101  A    between atoms: _247  and  _248
REMARK  102  A    between atoms: _248  and  _249
REMARK  103  A    between atoms: _252  and  _254
REMARK  104  A    between atoms: _254  and  _255
REMARK  105  A    between atoms: _254  and  _257
REMARK  106  A    between atoms: _257  and  _258
REMARK  107  A    between atoms: _261  and  _263
REMARK  108  A    between atoms: _263  and  _264
REMARK  109  A    between atoms: _263  and  _266
REMARK  110  A    between atoms: _266  and  _267
REMARK  111  A    between atoms: _267  and  _268
REMARK  112  A    between atoms: _268  and  _269
REMARK  113  A    between atoms: _278  and  _280
REMARK  114  A    between atoms: _280  and  _281
REMARK  115  A    between atoms: _280  and  _283
REMARK  116  A    between atoms: _283  and  _284
REMARK  117  A    between atoms: _287  and  _289
REMARK  118  A    between atoms: _289  and  _290
REMARK  119  A    between atoms: _289  and  _292
REMARK  120  A    between atoms: _292  and  _293
REMARK  121  A    between atoms: _296  and  _298
REMARK  122  A    between atoms: _298  and  _299
REMARK  123  A    between atoms: _298  and  _301
REMARK  124  A    between atoms: _301  and  _302
REMARK  125  A    between atoms: _307  and  _309
REMARK  126  A    between atoms: _309  and  _310
REMARK  127  A    between atoms: _309  and  _312
REMARK  128  A    between atoms: _312  and  _313
REMARK  129  A    between atoms: _313  and  _314
REMARK  130  A    between atoms: _316  and  _318
REMARK  131  A    between atoms: _318  and  _319
REMARK  132  A    between atoms: _318  and  _321
REMARK  133  A    between atoms: _321  and  _322
REMARK  134  A    between atoms: _327  and  _329
REMARK  135  A    between atoms: _329  and  _330
REMARK  136  A    between atoms: _329  and  _332
REMARK  137  A    between atoms: _335  and  _337
REMARK  138  A    between atoms: _337  and  _338
REMARK  139  A    between atoms: _337  and  _340
REMARK  140  A    between atoms: _340  and  _341
REMARK  141  A    between atoms: _344  and  _346
REMARK  142  A    between atoms: _346  and  _347
REMARK  143  A    between atoms: _349  and  _351
REMARK  144  A    between atoms: _351  and  _352
REMARK  145  A    between atoms: _351  and  _354
REMARK  146  A    between atoms: _354  and  _355
REMARK  147  A    between atoms: _358  and  _360
REMARK  148  A    between atoms: _360  and  _361
REMARK  149  A    between atoms: _360  and  _363
REMARK  150  A    between atoms: _363  and  _364
REMARK  151  A    between atoms: _367  and  _369
REMARK  152  A    between atoms: _369  and  _370
REMARK  153  A    between atoms: _369  and  _372
REMARK  154  A    between atoms: _372  and  _373
REMARK  155  A    between atoms: _376  and  _378
REMARK  156  A    between atoms: _378  and  _379
REMARK  157  A    between atoms: _378  and  _381
REMARK  158  A    between atoms: _381  and  _382
REMARK  159  A    between atoms: _387  and  _388
REMARK  160  A    between atoms: _390  and  _392
REMARK  161  A    between atoms: _392  and  _393
REMARK  162  A    between atoms: _392  and  _395
REMARK  163  A    between atoms: _395  and  _396
REMARK  164  A    between atoms: _399  and  _401
REMARK  165  A    between atoms: _401  and  _402
REMARK  166  A    between atoms: _401  and  _404
REMARK  167  A    between atoms: _407  and  _409
REMARK  168  A    between atoms: _409  and  _410
REMARK  169  A    between atoms: _409  and  _412
REMARK  170  A    between atoms: _412  and  _413
REMARK  171  A    between atoms: _416  and  _418
REMARK  172  A    between atoms: _418  and  _419
REMARK  173  A    between atoms: _418  and  _421
REMARK  174  A    between atoms: _421  and  _422
REMARK  175  A    between atoms: _427  and  _429
REMARK  176  A    between atoms: _429  and  _430
REMARK  177  A    between atoms: _429  and  _432
REMARK  178  A    between atoms: _432  and  _433
REMARK  179  A    between atoms: _436  and  _438
REMARK  180  A    between atoms: _438  and  _439
REMARK  181  A    between atoms: _438  and  _441
REMARK  182  A    between atoms: _441  and  _442
REMARK  183  A    between atoms: _442  and  _443
REMARK  184  A    between atoms: _445  and  _447
REMARK  185  A    between atoms: _447  and  _448
REMARK  186  A    between atoms: _450  and  _452
REMARK  187  A    between atoms: _452  and  _453
REMARK  188  A    between atoms: _456  and  _458
REMARK  189  A    between atoms: _458  and  _459
REMARK  190  A    between atoms: _458  and  _461
REMARK  191  A    between atoms: _461  and  _462
REMARK  192  A    between atoms: _465  and  _467
REMARK  193  A    between atoms: _467  and  _468
REMARK  194  A    between atoms: _467  and  _470
REMARK  195  A    between atoms: _470  and  _471
REMARK  196  A    between atoms: _476  and  _477
REMARK  197  A    between atoms: _479  and  _481
REMARK  198  A    between atoms: _481  and  _482
REMARK  199  A    between atoms: _481  and  _484
REMARK  200  A    between atoms: _484  and  _485
REMARK  201  A    between atoms: _488  and  _490
REMARK  202  A    between atoms: _490  and  _491
REMARK  203  A    between atoms: _490  and  _493
REMARK  204  A    between atoms: _493  and  _494
REMARK  205  A    between atoms: _497  and  _499
REMARK  206  A    between atoms: _499  and  _500
REMARK  207  A    between atoms: _499  and  _502
REMARK  208  A    between atoms: _502  and  _503
REMARK  209  A    between atoms: _506  and  _508
REMARK  210  A    between atoms: _508  and  _509
REMARK  211  A    between atoms: _508  and  _511
REMARK  212  A    between atoms: _511  and  _512
REMARK  213  A    between atoms: _517  and  _519
REMARK  214  A    between atoms: _519  and  _520
REMARK  215  A    between atoms: _519  and  _522
REMARK  216  A    between atoms: _522  and  _523
REMARK  217  A    between atoms: _523  and  _524
REMARK  218  A    between atoms: _524  and  _525
REMARK  219  A    between atoms: _534  and  _536
REMARK  220  A    between atoms: _536  and  _537
REMARK  221  A    between atoms: _536  and  _539
REMARK  222  A    between atoms: _539  and  _540
REMARK  223  A    between atoms: _543  and  _545
REMARK  224  A    between atoms: _545  and  _546
REMARK  225  A    between atoms: _545  and  _548
REMARK  226  A    between atoms: _548  and  _549
REMARK  227  A    between atoms: _552  and  _554
REMARK  228  A    between atoms: _554  and  _555
REMARK  229  A    between atoms: _554  and  _557
REMARK  230  A    between atoms: _557  and  _558
REMARK  231  A    between atoms: _563  and  _565
REMARK  232  A    between atoms: _565  and  _566
REMARK  233  A    between atoms: _565  and  _568
REMARK  234  A    between atoms: _568  and  _569
REMARK  235  A    between atoms: _572  and  _574
REMARK  236  A    between atoms: _574  and  _575
REMARK  237  A    between atoms: _578  and  _580
REMARK  238  A    between atoms: _580  and  _581
REMARK  239  A    between atoms: _580  and  _583
REMARK  240  A    between atoms: _583  and  _584
REMARK  241  A    between atoms: _584  and  _585
REMARK  242  A    between atoms: _585  and  _586
REMARK  243  A    between atoms: _586  and  _587
REMARK  244  A    between atoms: _591  and  _593
REMARK  245  A    between atoms: _593  and  _594
REMARK  246  A    between atoms: _593  and  _596
REMARK  247  A    between atoms: _596  and  _597
REMARK  248  A    between atoms: _600  and  _602
REMARK  249  A    between atoms: _602  and  _603
REMARK  250  A    between atoms: _602  and  _605
REMARK  251  A    between atoms: _605  and  _606
REMARK  252  A    between atoms: _609  and  _611
REMARK  253  A    between atoms: _611  and  _612
REMARK  254  A    between atoms: _611  and  _614
REMARK  255  A    between atoms: _614  and  _615
REMARK  256  A    between atoms: _618  and  _620
REMARK  257  A    between atoms: _620  and  _621
REMARK  258  A    between atoms: _620  and  _623
REMARK  259  A    between atoms: _623  and  _624
REMARK  260  A    between atoms: _630  and  _632
REMARK  261  A    between atoms: _632  and  _633
REMARK  262  A    between atoms: _635  and  _637
REMARK  263  A    between atoms: _637  and  _638
REMARK  264  A    between atoms: _637  and  _640
REMARK  265  A    between atoms: _640  and  _641
REMARK  266  A    between atoms: _644  and  _646
REMARK  267  A    between atoms: _646  and  _647
REMARK  268  A    between atoms: _646  and  _649
REMARK  269  A    between atoms: _649  and  _650
REMARK  270  A    between atoms: _653  and  _655
REMARK  271  A    between atoms: _655  and  _656
REMARK  272  A    between atoms: _655  and  _658
REMARK  273  A    between atoms: _658  and  _659
REMARK  274  A    between atoms: _664  and  _665
REMARK  275  A    between atoms: _667  and  _669
REMARK  276  A    between atoms: _669  and  _670
REMARK  277  A    between atoms: _669  and  _672
REMARK  278  A    between atoms: _672  and  _673
REMARK  279  A    between atoms: _673  and  _674
REMARK                            x       y       z     vdW  Elec       q    Type
REMARK                         _______ _______ _______ _____ _____    ______ ____
ROOT
ATOM      1  C   ASN A   1      21.723   0.698   3.110  0.00  0.00    +0.239 C 
ATOM      2  N   LEU A   2      22.075   1.535   4.089  0.00  0.00    -0.297 N 
ATOM      3  H   LEU A   2      22.170   2.545   3.858  0.00  0.00    +0.150 HD
ATOM      4  O   ASN A   1      21.578  -0.509   3.275  0.00  0.00    -0.274 OA
ENDROOT
BRANCH   1   5
ATOM      5  CA  ASN A   1      21.513   1.319   1.724  0.00  0.00    +0.154 C 
BRANCH   5   6
ATOM      6  N   ASN A   1      22.036   2.697   1.570  0.00  0.00    -0.238 NA
ATOM      7  H   ASN A   1      23.055   2.826   1.407  0.00  0.00    +0.142 HD
ENDBRANCH   5   6
BRANCH   5   8
ATOM      8  CB  ASN A   1      22.136   0.396   0.667  0.00  0.00    +0.111 C 
BRANCH   8   9
ATOM      9  CG  ASN A   1      21.456   0.513  -0.686  0.00  0.00    +0.221 C 
ATOM     10  ND2 ASN A   1      20.195   0.933  -0.685  0.00  0.00    -0.329 N 
ATOM     11 HD21 ASN A   1      19.734   1.193   0.210  0.00  0.00    +0.145 HD
ATOM     12 HD22 ASN A   1      19.669   1.001  -1.580  0.00  0.00    +0.145 HD
ATOM     13  OD1 ASN A   1      22.053   0.190  -1.725  0.00  0.00    -0.275 OA
ENDBRANCH   8   9
ENDBRANCH   5   8
ENDBRANCH   1   5
BRANCH   2  14
ATOM     14  CA  LEU A   2      22.332   1.122   5.452  0.00  0.00    +0.149 C 
BRANCH  14  15
ATOM     15  C   LEU A   2      21.442   1.965   6.359  0.00  0.00    +0.241 C 
ATOM     16  N   ALA A   3      20.458   1.335   6.971  0.00  0.00    -0.298 N 
ATOM     17  H   ALA A   3      20.341   0.311   6.829  0.00  0.00    +0.150 HD
ATOM     18  O   LEU A   2      21.646   3.171   6.493  0.00  0.00    -0.273 OA
BRANCH  16  19
ATOM     19  CA  ALA A   3      19.539   2.040   7.835  0.00  0.00    +0.137 C 
ATOM     20  CB  ALA A   3      18.203   1.387   7.785  0.00  0.00    +0.030 C 
BRANCH  19  21
ATOM     21  C   ALA A   3      20.086   2.020   9.257  0.00  0.00    +0.227 C 
ATOM     22  O   ALA A   3      20.664   1.041   9.691  0.00  0.00    -0.286 OA
ENDBRANCH  19  21
ENDBRANCH  16  19
ENDBRANCH  14  15
BRANCH  14  23
ATOM     23  CB  LEU A   2      23.806   1.375   5.805  0.00  0.00    +0.029 C 
BRANCH  23  24
ATOM     24  CG  LEU A   2      24.810   0.632   4.913  0.00  0.00    +0.002 C 
ATOM     25  CD2 LEU A   2      26.214   1.070   5.226  0.00  0.00    +0.000 C 
ATOM     26  CD1 LEU A   2      24.646  -0.897   5.095  0.00  0.00    +0.000 C 
ENDBRANCH  23  24
ENDBRANCH  14  23
ENDBRANCH   2  14
TORSDOF 10
REMARK  Name = ../refined-set-2016/3gcu/3gcu_pocket.pdb
REMARK  279 active torsions:
REMARK  status: ('A' for Active; 'I' for Inactive)
REMARK    1  A    between atoms: _2  and  _3
REMARK    2  A    between atoms: _8  and  _10
REMARK    3  A    between atoms: _10  and  _11
REMARK    4  A    between atoms: _10  and  _13
REMARK    5  A    between atoms: _16  and  _18
REMARK    6  A    between atoms: _18  and  _19
REMARK    7  A    between atoms: _21  and  _23
REMARK    8  A    between atoms: _23  and  _24
REMARK    9  A    between atoms: _23  and  _26
REMARK   10  A    between atoms: _26  and  _27
REMARK   11  A    between atoms: _29  and  _31
REMARK   12  A    between atoms: _31  and  _32
REMARK   13  A    between atoms: _31  and  _34
REMARK   14  A    between atoms: _34  and  _35
REMARK   15  A    between atoms: _40  and  _41
REMARK   16  A    between atoms: _43  and  _45
REMARK   17  A    between atoms: _45  and  _46
REMARK   18  A    between atoms: _45  and  _48
REMARK   19  A    between atoms: _48  and  _49
REMARK   20  A    between atoms: _51  and  _53
REMARK   21  A    between atoms: _53  and  _54
REMARK   22  A    between atoms: _53  and  _56
REMARK   23  A    between atoms: _59  and  _61
REMARK   24  A    between atoms: _61  and  _62
REMARK   25  A    between atoms: _61  and  _64
REMARK   26  A    between atoms: _66  and  _68
REMARK   27  A    between atoms: _68  and  _69
REMARK   28  A    between atoms: _72  and  _74
REMARK   29  A    between atoms: _74  and  _75
REMARK   30  A    between atoms: _78  and  _80
REMARK   31  A    between atoms: _80  and  _81
REMARK   32  A    between atoms: _80  and  _83
REMARK   33  A    between atoms: _83  and  _84
REMARK   34  A    between atoms: _84  and  _85
REMARK   35  A    between atoms: _85  and  _86
REMARK   36  A    between atoms: _95  and  _97
REMARK   37  A    between atoms: _97  and  _98
REMARK   38  A    between atoms: _97  and  _100
REMARK   39  A    between atoms: _103  and  _105
REMARK   40  A    between atoms: _105  and  _106
REMARK   41  A    between atoms: _109  and  _111
REMARK   42  A    between atoms: _111  and  _112
REMARK   43  A    between atoms: _111  and  _114
REMARK   44  A    between atoms: _117  and  _119
REMARK   45  A    between atoms: _119  and  _120
REMARK   46  A    between atoms: _119  and  _122
REMARK   47  A    between atoms: _122  and  _123
REMARK   48  A    between atoms: _123  and  _124
REMARK   49  A    between atoms: _124  and  _125
REMARK   50  A    between atoms: _125  and  _126
REMARK   51  A    between atoms: _130  and  _132
REMARK   52  A    between atoms: _132  and  _133
REMARK   53  A    between atoms: _132  and  _135
REMARK   54  A    between atoms: _135  and  _136
REMARK   55  A    between atoms: _136  and  _137
REMARK   56  A    between atoms: _137  and  _138
REMARK   57  A    between atoms: _138  and  _139
REMARK   58  A    between atoms: _143  and  _145
REMARK   59  A    between atoms: _145  and  _146
REMARK   60  A    between atoms: _145  and  _148
REMARK   61  A    between atoms: _148  and  _149
REMARK   62  A    between atoms: _152  and  _154
REMARK   63  A    between atoms: _154  and  _155
REMARK   64  A    between atoms: _154  and  _157
REMARK   65  A    between atoms: _157  and  _158
REMARK   66  A    between atoms: _161  and  _163
REMARK   67  A    between atoms: _163  and  _164
REMARK   68  A    between atoms: _163  and  _166
REMARK   69  A    between atoms: _166  and  _167
REMARK   70  A    between atoms: _172  and  _174
REMARK   71  A    between atoms: _174  and  _175
REMARK   72  A    between atoms: _174  and  _177
REMARK   73  A    between atoms: _177  and  _178
REMARK   74  A    between atoms: _178  and  _179
REMARK   75  A    between atoms: _179  and  _180
REMARK   76  A    between atoms: _180  and  _181
REMARK   77  A    between atoms: _185  and  _187
REMARK   78  A    between atoms: _187  and  _188
REMARK   79  A    between atoms: _187  and  _190
REMARK   80  A    between atoms: _190  and  _191
REMARK   81  A    between atoms: _191  and  _192
REMARK   82  A    between atoms: _192  and  _193
REMARK   83  A    between atoms: _202  and  _204
REMARK   84  A    between atoms: _204  and  _205
REMARK   85  A    between atoms: _204  and  _207
REMARK   86  A    between atoms: _207  and  _208
REMARK   87  A    between atoms: _211  and  _213
REMARK   88  A    between atoms: _213  and  _214
REMARK   89  A    between atoms: _213  and  _216
REMARK   90  A    between atoms: _216  and  _217
REMARK   91  A    between atoms: _222  and  _223
REMARK   92  A    between atoms: _225  and  _227
REMARK   93  A    between atoms: _227  and  _228
REMARK   94  A    between atoms: _227  and  _230
REMARK   95  A    between atoms: _230  and  _231
REMARK   96  A    between atoms: _231  and  _232
REMARK   97  A    between atoms: _232  and  _233
REMARK   98  A    between atoms: _242  and  _244
REMARK   99  A    between atoms: _244  and  _245
REMARK  100  A    between atoms: _244  and  _247
REMARK  101  A    between atoms: _247  and  _248
REMARK  102  A    between atoms: _248  and  _249
REMARK  103  A    between atoms: _252  and  _254
REMARK  104  A    between atoms: _254  and  _255
REMARK  105  A    between atoms: _254  and  _257
REMARK  106  A    between atoms: _257  and  _258
REMARK  107  A    between atoms: _261  and  _263
REMARK  108  A    between atoms: _263  and  _264
REMARK  109  A    between atoms: _263  and  _266
REMARK  110  A    between atoms: _266  and  _267
REMARK  111  A    between atoms: _267  and  _268
REMARK  112  A    between atoms: _268  and  _269
REMARK  113  A    between atoms: _278  and  _280
REMARK  114  A    between atoms: _280  and  _281
REMARK  115  A    between atoms: _280  and  _283
REMARK  116  A    between atoms: _283  and  _284
REMARK  117  A    between atoms: _287  and  _289
REMARK  118  A    between atoms: _289  and  _290
REMARK  119  A    between atoms: _289  and  _292
REMARK  120  A    between atoms: _292  and  _293
REMARK  121  A    between atoms: _296  and  _298
REMARK  122  A    between atoms: _298  and  _299
REMARK  123  A    between atoms: _298  and  _301
REMARK  124  A    between atoms: _301  and  _302
REMARK  125  A    between atoms: _307  and  _309
REMARK  126  A    between atoms: _309  and  _310
REMARK  127  A    between atoms: _309  and  _312
REMARK  128  A    between atoms: _312  and  _313
REMARK  129  A    between atoms: _313  and  _314
REMARK  130  A    between atoms: _316  and  _318
REMARK  131  A    between atoms: _318  and  _319
REMARK  132  A    between atoms: _318  and  _321
REMARK  133  A    between atoms: _321  and  _322
REMARK  134  A    between atoms: _327  and  _329
REMARK  135  A    between atoms: _329  and  _330
REMARK  136  A    between atoms: _329  and  _332
REMARK  137  A    between atoms: _335  and  _337
REMARK  138  A    between atoms: _337  and  _338
REMARK  139  A    between atoms: _337  and  _340
REMARK  140  A    between atoms: _340  and  _341
REMARK  141  A    between atoms: _344  and  _346
REMARK  142  A    between atoms: _346  and  _347
REMARK  143  A    between atoms: _349  and  _351
REMARK  144  A    between atoms: _351  and  _352
REMARK  145  A    between atoms: _351  and  _354
REMARK  146  A    between atoms: _354  and  _355
REMARK  147  A    between atoms: _358  and  _360
REMARK  148  A    between atoms: _360  and  _361
REMARK  149  A    between atoms: _360  and  _363
REMARK  150  A    between atoms: _363  and  _364
REMARK  151  A    between atoms: _367  and  _369
REMARK  152  A    between atoms: _369  and  _370
REMARK  153  A    between atoms: _369  and  _372
REMARK  154  A    between atoms: _372  and  _373
REMARK  155  A    between atoms: _376  and  _378
REMARK  156  A    between atoms: _378  and  _379
REMARK  157  A    between atoms: _378  and  _381
REMARK  158  A    between atoms: _381  and  _382
REMARK  159  A    between atoms: _387  and  _388
REMARK  160  A    between atoms: _390  and  _392
REMARK  161  A    between atoms: _392  and  _393
REMARK  162  A    between atoms: _392  and  _395
REMARK  163  A    between atoms: _395  and  _396
REMARK  164  A    between atoms: _399  and  _401
REMARK  165  A    between atoms: _401  and  _402
REMARK  166  A    between atoms: _401  and  _404
REMARK  167  A    between atoms: _407  and  _409
REMARK  168  A    between atoms: _409  and  _410
REMARK  169  A    between atoms: _409  and  _412
REMARK  170  A    between atoms: _412  and  _413
REMARK  171  A    between atoms: _416  and  _418
REMARK  172  A    between atoms: _418  and  _419
REMARK  173  A    between atoms: _418  and  _421
REMARK  174  A    between atoms: _421  and  _422
REMARK  175  A    between atoms: _427  and  _429
REMARK  176  A    between atoms: _429  and  _430
REMARK  177  A    between atoms: _429  and  _432
REMARK  178  A    between atoms: _432  and  _433
REMARK  179  A    between atoms: _436  and  _438
REMARK  180  A    between atoms: _438  and  _439
REMARK  181  A    between atoms: _438  and  _441
REMARK  182  A    between atoms: _441  and  _442
REMARK  183  A    between atoms: _442  and  _443
REMARK  184  A    between atoms: _445  and  _447
REMARK  185  A    between atoms: _447  and  _448
REMARK  186  A    between atoms: _450  and  _452
REMARK  187  A    between atoms: _452  and  _453
REMARK  188  A    between atoms: _456  and  _458
REMARK  189  A    between atoms: _458  and  _459
REMARK  190  A    between atoms: _458  and  _461
REMARK  191  A    between atoms: _461  and  _462
REMARK  192  A    between atoms: _465  and  _467
REMARK  193  A    between atoms: _467  and  _468
REMARK  194  A    between atoms: _467  and  _470
REMARK  195  A    between atoms: _470  and  _471
REMARK  196  A    between atoms: _476  and  _477
REMARK  197  A    between atoms: _479  and  _481
REMARK  198  A    between atoms: _481  and  _482
REMARK  199  A    between atoms: _481  and  _484
REMARK  200  A    between atoms: _484  and  _485
REMARK  201  A    between atoms: _488  and  _490
REMARK  202  A    between atoms: _490  and  _491
REMARK  203  A    between atoms: _490  and  _493
REMARK  204  A    between atoms: _493  and  _494
REMARK  205  A    between atoms: _497  and  _499
REMARK  206  A    between atoms: _499  and  _500
REMARK  207  A    between atoms: _499  and  _502
REMARK  208  A    between atoms: _502  and  _503
REMARK  209  A    between atoms: _506  and  _508
REMARK  210  A    between atoms: _508  and  _509
REMARK  211  A    between atoms: _508  and  _511
REMARK  212  A    between atoms: _511  and  _512
REMARK  213  A    between atoms: _517  and  _519
REMARK  214  A    between atoms: _519  and  _520
REMARK  215  A    between atoms: _519  and  _522
REMARK  216  A    between atoms: _522  and  _523
REMARK  217  A    between atoms: _523  and  _524
REMARK  218  A    between atoms: _524  and  _525
REMARK  219  A    between atoms: _534  and  _536
REMARK  220  A    between atoms: _536  and  _537
REMARK  221  A    between atoms: _536  and  _539
REMARK  222  A    between atoms: _539  and  _540
REMARK  223  A    between atoms: _543  and  _545
REMARK  224  A    between atoms: _545  and  _546
REMARK  225  A    between atoms: _545  and  _548
REMARK  226  A    between atoms: _548  and  _549
REMARK  227  A    between atoms: _552  and  _554
REMARK  228  A    between atoms: _554  and  _555
REMARK  229  A    between atoms: _554  and  _557
REMARK  230  A    between atoms: _557  and  _558
REMARK  231  A    between atoms: _563  and  _565
REMARK  232  A    between atoms: _565  and  _566
REMARK  233  A    between atoms: _565  and  _568
REMARK  234  A    between atoms: _568  and  _569
REMARK  235  A    between atoms: _572  and  _574
REMARK  236  A    between atoms: _574  and  _575
REMARK  237  A    between atoms: _578  and  _580
REMARK  238  A    between atoms: _580  and  _581
REMARK  239  A    between atoms: _580  and  _583
REMARK  240  A    between atoms: _583  and  _584
REMARK  241  A    between atoms: _584  and  _585
REMARK  242  A    between atoms: _585  and  _586
REMARK  243  A    between atoms: _586  and  _587
REMARK  244  A    between atoms: _591  and  _593
REMARK  245  A    between atoms: _593  and  _594
REMARK  246  A    between atoms: _593  and  _596
REMARK  247  A    between atoms: _596  and  _597
REMARK  248  A    between atoms: _600  and  _602
REMARK  249  A    between atoms: _602  and  _603
REMARK  250  A    between atoms: _602  and  _605
REMARK  251  A    between atoms: _605  and  _606
REMARK  252  A    between atoms: _609  and  _611
REMARK  253  A    between atoms: _611  and  _612
REMARK  254  A    between atoms: _611  and  _614
REMARK  255  A    between atoms: _614  and  _615
REMARK  256  A    between atoms: _618  and  _620
REMARK  257  A    between atoms: _620  and  _621
REMARK  258  A    between atoms: _620  and  _623
REMARK  259  A    between atoms: _623  and  _624
REMARK  260  A    between atoms: _630  and  _632
REMARK  261  A    between atoms: _632  and  _633
REMARK  262  A    between atoms: _635  and  _637
REMARK  263  A    between atoms: _637  and  _638
REMARK  264  A    between atoms: _637  and  _640
REMARK  265  A    between atoms: _640  and  _641
REMARK  266  A    between atoms: _644  and  _646
REMARK  267  A    between atoms: _646  and  _647
REMARK  268  A    between atoms: _646  and  _649
REMARK  269  A    between atoms: _649  and  _650
REMARK  270  A    between atoms: _653  and  _655
REMARK  271  A    between atoms: _655  and  _656
REMARK  272  A    between atoms: _655  and  _658
REMARK  273  A    between atoms: _658  and  _659
REMARK  274  A    between atoms: _664  and  _665
REMARK  275  A    between atoms: _667  and  _669
REMARK  276  A    between atoms: _669  and  _670
REMARK  277  A    between atoms: _669  and  _672
REMARK  278  A    between atoms: _672  and  _673
REMARK  279  A    between atoms: _673  and  _674
REMARK                            x       y       z     vdW  Elec       q    Type
REMARK                         _______ _______ _______ _____ _____    ______ ____
ROOT
ATOM      1  C   LEU A   3      19.414  -3.035   1.549  0.00  0.00    +0.241 C 
ATOM      2  O   LEU A   3      20.570  -2.799   1.207  0.00  0.00    -0.273 OA
ATOM      3  N   ASP A   4      18.390  -2.935   0.723  0.00  0.00    -0.297 N 
ATOM      4  H   ASP A   4      17.458  -3.294   1.013  0.00  0.00    +0.150 HD
ENDROOT
BRANCH   3   5
ATOM      5  CA  ASP A   4      18.548  -2.332  -0.580  0.00  0.00    +0.160 C 
BRANCH   5   6
ATOM      6  C   ASP A   4      17.336  -1.430  -0.769  0.00  0.00    +0.241 C 
ATOM      7  N   PHE A   5      17.554  -0.130  -0.547  0.00  0.00    -0.297 N 
ATOM      8  H   PHE A   5      18.532   0.164  -0.352  0.00  0.00    +0.150 HD
ATOM      9  O   ASP A   4      16.240  -1.911  -1.052  0.00  0.00    -0.273 OA
BRANCH   7  10
ATOM     10  CA  PHE A   5      16.522   0.917  -0.556  0.00  0.00    +0.153 C 
BRANCH  10  11
ATOM     11  C   PHE A   5      16.149   1.277  -1.981  0.00  0.00    +0.241 C 
ATOM     12  O   PHE A   5      15.180   2.011  -2.194  0.00  0.00    -0.273 OA
ATOM     13  N   GLY A   6      16.941   0.798  -2.949  0.00  0.00    -0.295 N 
ATOM     14  H   GLY A   6      17.685   0.114  -2.704  0.00  0.00    +0.150 HD
BRANCH  13  15
ATOM     15  CA  GLY A   6      16.785   1.213  -4.337  0.00  0.00    +0.176 C 
BRANCH  15  16
ATOM     16  C   GLY A   6      15.375   0.947  -4.836  0.00  0.00    +0.243 C 
ATOM     17  O   GLY A   6      14.804  -0.126  -4.555  0.00  0.00    -0.273 OA
ATOM     18  N   LEU A   7      14.813   1.917  -5.566  0.00  0.00    -0.298 N 
ATOM     19  H   LEU A   7      15.323   2.814  -5.695  0.00  0.00    +0.150 HD
BRANCH  18  20
ATOM     20  CA  LEU A   7      13.489   1.746  -6.193  0.00  0.00    +0.137 C 
BRANCH  20  21
ATOM     21  C   LEU A   7      13.441   2.117  -7.684  0.00  0.00    +0.227 C 
ATOM     22  O   LEU A   7      12.403   1.925  -8.342  0.00  0.00    -0.286 OA
ENDBRANCH  20  21
BRANCH  20  23
ATOM     23  CB  LEU A   7      12.412   2.515  -5.418  0.00  0.00    +0.028 C 
BRANCH  23  24
ATOM     24  CG  LEU A   7      11.954   2.015  -4.043  0.00  0.00    +0.002 C 
ATOM     25  CD2 LEU A   7      11.096   3.100  -3.395  0.00  0.00    +0.000 C 
ATOM     26  CD1 LEU A   7      11.201   0.687  -4.126  0.00  0.00    +0.000 C 
ENDBRANCH  23  24
ENDBRANCH  20  23
ENDBRANCH  18  20
ENDBRANCH  15  16
ENDBRANCH  13  15
ENDBRANCH  10  11
BRANCH  10  27
ATOM     27  CB  PHE A   5      17.037   2.217   0.103  0.00  0.00    +0.055 C 
BRANCH  27  28
ATOM     28  CG  PHE A   5      16.800   2.318   1.596  0.00  0.00    -0.020 A 
ATOM     29  CD2 PHE A   5      17.860   2.187   2.493  0.00  0.00    -0.004 A 
ATOM     30  CE2 PHE A   5      17.661   2.312   3.879  0.00  0.00    -0.000 A 
ATOM     31  CZ  PHE A   5      16.384   2.566   4.382  0.00  0.00    -0.000 A 
ATOM     32  CE1 PHE A   5      15.324   2.699   3.497  0.00  0.00    -0.000 A 
ATOM     33  CD1 PHE A   5      15.534   2.581   2.106  0.00  0.00    -0.004 A 
ENDBRANCH  27  28
ENDBRANCH  10  27
ENDBRANCH   7  10
ENDBRANCH   5   6
BRANCH   5  34
ATOM     34  CB  ASP A   4      18.699  -3.400  -1.664  0.00  0.00    +0.143 C 
BRANCH  34  35
ATOM     35  CG  ASP A   4      19.281  -2.845  -2.963  0.00  0.00    +0.367 C 
ATOM     36  OD2 ASP A   4      18.762  -1.795  -3.408  0.00  0.00    -0.246 OA
ATOM     37  OD1 ASP A   4      20.241  -3.459  -3.527  0.00  0.00    -0.246 OA
ENDBRANCH  34  35
ENDBRANCH   5  34
ENDBRANCH   3   5
BRANCH   1  38
ATOM     38  CA  LEU A   3      19.105  -3.507   2.971  0.00  0.00    +0.149 C 
BRANCH  38  41
ATOM     39  C   ILE A   2      20.472  -4.006   4.882  0.00  0.00    +0.241 C 
ATOM     40  O   ILE A   2      19.709  -4.924   5.239  0.00  0.00    -0.273 OA
ATOM     41  N   LEU A   3      20.196  -3.203   3.873  0.00  0.00    -0.297 N 
ATOM     42  H   LEU A   3      20.766  -2.346   3.724  0.00  0.00    +0.150 HD
BRANCH  39  43
ATOM     43  CA  ILE A   2      21.794  -3.712   5.609  0.00  0.00    +0.148 C 
BRANCH  43  46
ATOM     44  C   LYS A   1      21.062  -2.736   7.703  0.00  0.00    +0.238 C 
ATOM     45  O   LYS A   1      21.009  -1.593   7.218  0.00  0.00    -0.274 OA
ATOM     46  N   ILE A   2      21.504  -3.783   7.027  0.00  0.00    -0.297 N 
ATOM     47  H   ILE A   2      21.648  -4.683   7.527  0.00  0.00    +0.150 HD
BRANCH  44  48
ATOM     48  CA  LYS A   1      20.619  -3.011   9.150  0.00  0.00    +0.145 C 
BRANCH  48  49
ATOM     49  N   LYS A   1      20.993  -1.882  10.040  0.00  0.00    -0.238 NA
ATOM     50  H   LYS A   1      20.677  -0.922   9.793  0.00  0.00    +0.142 HD
ENDBRANCH  48  49
BRANCH  48  51
ATOM     51  CB  LYS A   1      19.109  -3.294   9.188  0.00  0.00    +0.026 C 
BRANCH  51  52
ATOM     52  CG  LYS A   1      18.572  -3.820  10.551  0.00  0.00    -0.000 C 
BRANCH  52  53
ATOM     53  CD  LYS A   1      17.116  -4.321  10.464  0.00  0.00    -0.024 C 
BRANCH  53  54
ATOM     54  CE  LYS A   1      16.693  -5.152  11.676  0.00  0.00    -0.086 C 
BRANCH  54  55
ATOM     55  NZ  LYS A   1      16.562  -6.657  11.342  0.00  0.00    +0.380 N 
ATOM     56  HZ1 LYS A   1      16.273  -7.176  12.196  0.00  0.00    -0.089 HD
ATOM     57  HZ2 LYS A   1      17.479  -7.018  11.008  0.00  0.00    -0.089 HD
ATOM     58  HZ3 LYS A   1      15.846  -6.785  10.598  0.00  0.00    -0.089 HD
ENDBRANCH  54  55
ENDBRANCH  53  54
ENDBRANCH  52  53
ENDBRANCH  51  52
ENDBRANCH  48  51
ENDBRANCH  44  48
ENDBRANCH  43  46
BRANCH  43  59
ATOM     59  CB  ILE A   2      22.874  -4.736   5.190  0.00  0.00    +0.027 C 
ATOM     60  CG2 ILE A   2      23.081  -4.747   3.612  0.00  0.00    +0.002 C 
BRANCH  59  61
ATOM     61  CG1 ILE A   2      24.198  -4.479   5.975  0.00  0.00    +0.002 C 
ATOM     62  CD1 ILE A   2      25.247  -5.561   5.868  0.00  0.00    +0.000 C 
ENDBRANCH  59  61
ENDBRANCH  43  59
ENDBRANCH  39  43
ENDBRANCH  38  41
BRANCH  38  63
ATOM     63  CB  LEU A   3      17.784  -2.966   3.492  0.00  0.00    +0.029 C 
BRANCH  63  64
ATOM     64  CG  LEU A   3      17.552  -1.489   3.765  0.00  0.00    +0.002 C 
ATOM     65  CD2 LEU A   3      17.916  -1.094   5.211  0.00  0.00    +0.000 C 
ATOM     66  CD1 LEU A   3      16.100  -1.219   3.488  0.00  0.00    +0.000 C 
ENDBRANCH  63  64
ENDBRANCH  38  63
ENDBRANCH   1  38
TORSDOF 29
REMARK  Name = ../refined-set-2016/3gcu/3gcu_pocket.pdb
REMARK  279 active torsions:
REMARK  status: ('A' for Active; 'I' for Inactive)
REMARK    1  A    between atoms: _2  and  _3
REMARK    2  A    between atoms: _8  and  _10
REMARK    3  A    between atoms: _10  and  _11
REMARK    4  A    between atoms: _10  and  _13
REMARK    5  A    between atoms: _16  and  _18
REMARK    6  A    between atoms: _18  and  _19
REMARK    7  A    between atoms: _21  and  _23
REMARK    8  A    between atoms: _23  and  _24
REMARK    9  A    between atoms: _23  and  _26
REMARK   10  A    between atoms: _26  and  _27
REMARK   11  A    between atoms: _29  and  _31
REMARK   12  A    between atoms: _31  and  _32
REMARK   13  A    between atoms: _31  and  _34
REMARK   14  A    between atoms: _34  and  _35
REMARK   15  A    between atoms: _40  and  _41
REMARK   16  A    between atoms: _43  and  _45
REMARK   17  A    between atoms: _45  and  _46
REMARK   18  A    between atoms: _45  and  _48
REMARK   19  A    between atoms: _48  and  _49
REMARK   20  A    between atoms: _51  and  _53
REMARK   21  A    between atoms: _53  and  _54
REMARK   22  A    between atoms: _53  and  _56
REMARK   23  A    between atoms: _59  and  _61
REMARK   24  A    between atoms: _61  and  _62
REMARK   25  A    between atoms: _61  and  _64
REMARK   26  A    between atoms: _66  and  _68
REMARK   27  A    between atoms: _68  and  _69
REMARK   28  A    between atoms: _72  and  _74
REMARK   29  A    between atoms: _74  and  _75
REMARK   30  A    between atoms: _78  and  _80
REMARK   31  A    between atoms: _80  and  _81
REMARK   32  A    between atoms: _80  and  _83
REMARK   33  A    between atoms: _83  and  _84
REMARK   34  A    between atoms: _84  and  _85
REMARK   35  A    between atoms: _85  and  _86
REMARK   36  A    between atoms: _95  and  _97
REMARK   37  A    between atoms: _97  and  _98
REMARK   38  A    between atoms: _97  and  _100
REMARK   39  A    between atoms: _103  and  _105
REMARK   40  A    between atoms: _105  and  _106
REMARK   41  A    between atoms: _109  and  _111
REMARK   42  A    between atoms: _111  and  _112
REMARK   43  A    between atoms: _111  and  _114
REMARK   44  A    between atoms: _117  and  _119
REMARK   45  A    between atoms: _119  and  _120
REMARK   46  A    between atoms: _119  and  _122
REMARK   47  A    between atoms: _122  and  _123
REMARK   48  A    between atoms: _123  and  _124
REMARK   49  A    between atoms: _124  and  _125
REMARK   50  A    between atoms: _125  and  _126
REMARK   51  A    between atoms: _130  and  _132
REMARK   52  A    between atoms: _132  and  _133
REMARK   53  A    between atoms: _132  and  _135
REMARK   54  A    between atoms: _135  and  _136
REMARK   55  A    between atoms: _136  and  _137
REMARK   56  A    between atoms: _137  and  _138
REMARK   57  A    between atoms: _138  and  _139
REMARK   58  A    between atoms: _143  and  _145
REMARK   59  A    between atoms: _145  and  _146
REMARK   60  A    between atoms: _145  and  _148
REMARK   61  A    between atoms: _148  and  _149
REMARK   62  A    between atoms: _152  and  _154
REMARK   63  A    between atoms: _154  and  _155
REMARK   64  A    between atoms: _154  and  _157
REMARK   65  A    between atoms: _157  and  _158
REMARK   66  A    between atoms: _161  and  _163
REMARK   67  A    between atoms: _163  and  _164
REMARK   68  A    between atoms: _163  and  _166
REMARK   69  A    between atoms: _166  and  _167
REMARK   70  A    between atoms: _172  and  _174
REMARK   71  A    between atoms: _174  and  _175
REMARK   72  A    between atoms: _174  and  _177
REMARK   73  A    between atoms: _177  and  _178
REMARK   74  A    between atoms: _178  and  _179
REMARK   75  A    between atoms: _179  and  _180
REMARK   76  A    between atoms: _180  and  _181
REMARK   77  A    between atoms: _185  and  _187
REMARK   78  A    between atoms: _187  and  _188
REMARK   79  A    between atoms: _187  and  _190
REMARK   80  A    between atoms: _190  and  _191
REMARK   81  A    between atoms: _191  and  _192
REMARK   82  A    between atoms: _192  and  _193
REMARK   83  A    between atoms: _202  and  _204
REMARK   84  A    between atoms: _204  and  _205
REMARK   85  A    between atoms: _204  and  _207
REMARK   86  A    between atoms: _207  and  _208
REMARK   87  A    between atoms: _211  and  _213
REMARK   88  A    between atoms: _213  and  _214
REMARK   89  A    between atoms: _213  and  _216
REMARK   90  A    between atoms: _216  and  _217
REMARK   91  A    between atoms: _222  and  _223
REMARK   92  A    between atoms: _225  and  _227
REMARK   93  A    between atoms: _227  and  _228
REMARK   94  A    between atoms: _227  and  _230
REMARK   95  A    between atoms: _230  and  _231
REMARK   96  A    between atoms: _231  and  _232
REMARK   97  A    between atoms: _232  and  _233
REMARK   98  A    between atoms: _242  and  _244
REMARK   99  A    between atoms: _244  and  _245
REMARK  100  A    between atoms: _244  and  _247
REMARK  101  A    between atoms: _247  and  _248
REMARK  102  A    between atoms: _248  and  _249
REMARK  103  A    between atoms: _252  and  _254
REMARK  104  A    between atoms: _254  and  _255
REMARK  105  A    between atoms: _254  and  _257
REMARK  106  A    between atoms: _257  and  _258
REMARK  107  A    between atoms: _261  and  _263
REMARK  108  A    between atoms: _263  and  _264
REMARK  109  A    between atoms: _263  and  _266
REMARK  110  A    between atoms: _266  and  _267
REMARK  111  A    between atoms: _267  and  _268
REMARK  112  A    between atoms: _268  and  _269
REMARK  113  A    between atoms: _278  and  _280
REMARK  114  A    between atoms: _280  and  _281
REMARK  115  A    between atoms: _280  and  _283
REMARK  116  A    between atoms: _283  and  _284
REMARK  117  A    between atoms: _287  and  _289
REMARK  118  A    between atoms: _289  and  _290
REMARK  119  A    between atoms: _289  and  _292
REMARK  120  A    between atoms: _292  and  _293
REMARK  121  A    between atoms: _296  and  _298
REMARK  122  A    between atoms: _298  and  _299
REMARK  123  A    between atoms: _298  and  _301
REMARK  124  A    between atoms: _301  and  _302
REMARK  125  A    between atoms: _307  and  _309
REMARK  126  A    between atoms: _309  and  _310
REMARK  127  A    between atoms: _309  and  _312
REMARK  128  A    between atoms: _312  and  _313
REMARK  129  A    between atoms: _313  and  _314
REMARK  130  A    between atoms: _316  and  _318
REMARK  131  A    between atoms: _318  and  _319
REMARK  132  A    between atoms: _318  and  _321
REMARK  133  A    between atoms: _321  and  _322
REMARK  134  A    between atoms: _327  and  _329
REMARK  135  A    between atoms: _329  and  _330
REMARK  136  A    between atoms: _329  and  _332
REMARK  137  A    between atoms: _335  and  _337
REMARK  138  A    between atoms: _337  and  _338
REMARK  139  A    between atoms: _337  and  _340
REMARK  140  A    between atoms: _340  and  _341
REMARK  141  A    between atoms: _344  and  _346
REMARK  142  A    between atoms: _346  and  _347
REMARK  143  A    between atoms: _349  and  _351
REMARK  144  A    between atoms: _351  and  _352
REMARK  145  A    between atoms: _351  and  _354
REMARK  146  A    between atoms: _354  and  _355
REMARK  147  A    between atoms: _358  and  _360
REMARK  148  A    between atoms: _360  and  _361
REMARK  149  A    between atoms: _360  and  _363
REMARK  150  A    between atoms: _363  and  _364
REMARK  151  A    between atoms: _367  and  _369
REMARK  152  A    between atoms: _369  and  _370
REMARK  153  A    between atoms: _369  and  _372
REMARK  154  A    between atoms: _372  and  _373
REMARK  155  A    between atoms: _376  and  _378
REMARK  156  A    between atoms: _378  and  _379
REMARK  157  A    between atoms: _378  and  _381
REMARK  158  A    between atoms: _381  and  _382
REMARK  159  A    between atoms: _387  and  _388
REMARK  160  A    between atoms: _390  and  _392
REMARK  161  A    between atoms: _392  and  _393
REMARK  162  A    between atoms: _392  and  _395
REMARK  163  A    between atoms: _395  and  _396
REMARK  164  A    between atoms: _399  and  _401
REMARK  165  A    between atoms: _401  and  _402
REMARK  166  A    between atoms: _401  and  _404
REMARK  167  A    between atoms: _407  and  _409
REMARK  168  A    between atoms: _409  and  _410
REMARK  169  A    between atoms: _409  and  _412
REMARK  170  A    between atoms: _412  and  _413
REMARK  171  A    between atoms: _416  and  _418
REMARK  172  A    between atoms: _418  and  _419
REMARK  173  A    between atoms: _418  and  _421
REMARK  174  A    between atoms: _421  and  _422
REMARK  175  A    between atoms: _427  and  _429
REMARK  176  A    between atoms: _429  and  _430
REMARK  177  A    between atoms: _429  and  _432
REMARK  178  A    between atoms: _432  and  _433
REMARK  179  A    between atoms: _436  and  _438
REMARK  180  A    between atoms: _438  and  _439
REMARK  181  A    between atoms: _438  and  _441
REMARK  182  A    between atoms: _441  and  _442
REMARK  183  A    between atoms: _442  and  _443
REMARK  184  A    between atoms: _445  and  _447
REMARK  185  A    between atoms: _447  and  _448
REMARK  186  A    between atoms: _450  and  _452
REMARK  187  A    between atoms: _452  and  _453
REMARK  188  A    between atoms: _456  and  _458
REMARK  189  A    between atoms: _458  and  _459
REMARK  190  A    between atoms: _458  and  _461
REMARK  191  A    between atoms: _461  and  _462
REMARK  192  A    between atoms: _465  and  _467
REMARK  193  A    between atoms: _467  and  _468
REMARK  194  A    between atoms: _467  and  _470
REMARK  195  A    between atoms: _470  and  _471
REMARK  196  A    between atoms: _476  and  _477
REMARK  197  A    between atoms: _479  and  _481
REMARK  198  A    between atoms: _481  and  _482
REMARK  199  A    between atoms: _481  and  _484
REMARK  200  A    between atoms: _484  and  _485
REMARK  201  A    between atoms: _488  and  _490
REMARK  202  A    between atoms: _490  and  _491
REMARK  203  A    between atoms: _490  and  _493
REMARK  204  A    between atoms: _493  and  _494
REMARK  205  A    between atoms: _497  and  _499
REMARK  206  A    between atoms: _499  and  _500
REMARK  207  A    between atoms: _499  and  _502
REMARK  208  A    between atoms: _502  and  _503
REMARK  209  A    between atoms: _506  and  _508
REMARK  210  A    between atoms: _508  and  _509
REMARK  211  A    between atoms: _508  and  _511
REMARK  212  A    between atoms: _511  and  _512
REMARK  213  A    between atoms: _517  and  _519
REMARK  214  A    between atoms: _519  and  _520
REMARK  215  A    between atoms: _519  and  _522
REMARK  216  A    between atoms: _522  and  _523
REMARK  217  A    between atoms: _523  and  _524
REMARK  218  A    between atoms: _524  and  _525
REMARK  219  A    between atoms: _534  and  _536
REMARK  220  A    between atoms: _536  and  _537
REMARK  221  A    between atoms: _536  and  _539
REMARK  222  A    between atoms: _539  and  _540
REMARK  223  A    between atoms: _543  and  _545
REMARK  224  A    between atoms: _545  and  _546
REMARK  225  A    between atoms: _545  and  _548
REMARK  226  A    between atoms: _548  and  _549
REMARK  227  A    between atoms: _552  and  _554
REMARK  228  A    between atoms: _554  and  _555
REMARK  229  A    between atoms: _554  and  _557
REMARK  230  A    between atoms: _557  and  _558
REMARK  231  A    between atoms: _563  and  _565
REMARK  232  A    between atoms: _565  and  _566
REMARK  233  A    between atoms: _565  and  _568
REMARK  234  A    between atoms: _568  and  _569
REMARK  235  A    between atoms: _572  and  _574
REMARK  236  A    between atoms: _574  and  _575
REMARK  237  A    between atoms: _578  and  _580
REMARK  238  A    between atoms: _580  and  _581
REMARK  239  A    between atoms: _580  and  _583
REMARK  240  A    between atoms: _583  and  _584
REMARK  241  A    between atoms: _584  and  _585
REMARK  242  A    between atoms: _585  and  _586
REMARK  243  A    between atoms: _586  and  _587
REMARK  244  A    between atoms: _591  and  _593
REMARK  245  A    between atoms: _593  and  _594
REMARK  246  A    between atoms: _593  and  _596
REMARK  247  A    between atoms: _596  and  _597
REMARK  248  A    between atoms: _600  and  _602
REMARK  249  A    between atoms: _602  and  _603
REMARK  250  A    between atoms: _602  and  _605
REMARK  251  A    between atoms: _605  and  _606
REMARK  252  A    between atoms: _609  and  _611
REMARK  253  A    between atoms: _611  and  _612
REMARK  254  A    between atoms: _611  and  _614
REMARK  255  A    between atoms: _614  and  _615
REMARK  256  A    between atoms: _618  and  _620
REMARK  257  A    between atoms: _620  and  _621
REMARK  258  A    between atoms: _620  and  _623
REMARK  259  A    between atoms: _623  and  _624
REMARK  260  A    between atoms: _630  and  _632
REMARK  261  A    between atoms: _632  and  _633
REMARK  262  A    between atoms: _635  and  _637
REMARK  263  A    between atoms: _637  and  _638
REMARK  264  A    between atoms: _637  and  _640
REMARK  265  A    between atoms: _640  and  _641
REMARK  266  A    between atoms: _644  and  _646
REMARK  267  A    between atoms: _646  and  _647
REMARK  268  A    between atoms: _646  and  _649
REMARK  269  A    between atoms: _649  and  _650
REMARK  270  A    between atoms: _653  and  _655
REMARK  271  A    between atoms: _655  and  _656
REMARK  272  A    between atoms: _655  and  _658
REMARK  273  A    between atoms: _658  and  _659
REMARK  274  A    between atoms: _664  and  _665
REMARK  275  A    between atoms: _667  and  _669
REMARK  276  A    between atoms: _669  and  _670
REMARK  277  A    between atoms: _669  and  _672
REMARK  278  A    between atoms: _672  and  _673
REMARK  279  A    between atoms: _673  and  _674
REMARK                            x       y       z     vdW  Elec       q    Type
REMARK                         _______ _______ _______ _____ _____    ______ ____
ROOT
ATOM      1  CA  ASP A   1      31.576  -5.475  -0.839  0.00  0.00    +0.144 C 
ENDROOT
BRANCH   1   2
ATOM      2  N   ASP A   1      32.320  -6.115  -1.916  0.00  0.00    -0.239 NA
ATOM      3  H   ASP A   1      32.315  -7.153  -1.988  0.00  0.00    +0.142 HD
ENDBRANCH   1   2
BRANCH   1   4
ATOM      4  C   ASP A   1      32.501  -4.956   0.265  0.00  0.00    +0.225 C 
ATOM      5  O   ASP A   1      32.137  -4.013   0.966  0.00  0.00    -0.287 OA
ENDBRANCH   1   4
BRANCH   1   6
ATOM      6  CB  ASP A   1      30.564  -6.442  -0.191  0.00  0.00    +0.139 C 
BRANCH   6   7
ATOM      7  CG  ASP A   1      29.379  -6.785  -1.092  0.00  0.00    +0.367 C 
ATOM      8  OD2 ASP A   1      28.793  -7.851  -0.854  0.00  0.00    -0.246 OA
ATOM      9  OD1 ASP A   1      29.002  -6.001  -1.987  0.00  0.00    -0.246 OA
ENDBRANCH   6   7
ENDBRANCH   1   6
TORSDOF 4
REMARK  Name = ../refined-set-2016/3gcu/3gcu_pocket.pdb
REMARK  279 active torsions:
REMARK  status: ('A' for Active; 'I' for Inactive)
REMARK    1  A    between atoms: _2  and  _3
REMARK    2  A    between atoms: _8  and  _10
REMARK    3  A    between atoms: _10  and  _11
REMARK    4  A    between atoms: _10  and  _13
REMARK    5  A    between atoms: _16  and  _18
REMARK    6  A    between atoms: _18  and  _19
REMARK    7  A    between atoms: _21  and  _23
REMARK    8  A    between atoms: _23  and  _24
REMARK    9  A    between atoms: _23  and  _26
REMARK   10  A    between atoms: _26  and  _27
REMARK   11  A    between atoms: _29  and  _31
REMARK   12  A    between atoms: _31  and  _32
REMARK   13  A    between atoms: _31  and  _34
REMARK   14  A    between atoms: _34  and  _35
REMARK   15  A    between atoms: _40  and  _41
REMARK   16  A    between atoms: _43  and  _45
REMARK   17  A    between atoms: _45  and  _46
REMARK   18  A    between atoms: _45  and  _48
REMARK   19  A    between atoms: _48  and  _49
REMARK   20  A    between atoms: _51  and  _53
REMARK   21  A    between atoms: _53  and  _54
REMARK   22  A    between atoms: _53  and  _56
REMARK   23  A    between atoms: _59  and  _61
REMARK   24  A    between atoms: _61  and  _62
REMARK   25  A    between atoms: _61  and  _64
REMARK   26  A    between atoms: _66  and  _68
REMARK   27  A    between atoms: _68  and  _69
REMARK   28  A    between atoms: _72  and  _74
REMARK   29  A    between atoms: _74  and  _75
REMARK   30  A    between atoms: _78  and  _80
REMARK   31  A    between atoms: _80  and  _81
REMARK   32  A    between atoms: _80  and  _83
REMARK   33  A    between atoms: _83  and  _84
REMARK   34  A    between atoms: _84  and  _85
REMARK   35  A    between atoms: _85  and  _86
REMARK   36  A    between atoms: _95  and  _97
REMARK   37  A    between atoms: _97  and  _98
REMARK   38  A    between atoms: _97  and  _100
REMARK   39  A    between atoms: _103  and  _105
REMARK   40  A    between atoms: _105  and  _106
REMARK   41  A    between atoms: _109  and  _111
REMARK   42  A    between atoms: _111  and  _112
REMARK   43  A    between atoms: _111  and  _114
REMARK   44  A    between atoms: _117  and  _119
REMARK   45  A    between atoms: _119  and  _120
REMARK   46  A    between atoms: _119  and  _122
REMARK   47  A    between atoms: _122  and  _123
REMARK   48  A    between atoms: _123  and  _124
REMARK   49  A    between atoms: _124  and  _125
REMARK   50  A    between atoms: _125  and  _126
REMARK   51  A    between atoms: _130  and  _132
REMARK   52  A    between atoms: _132  and  _133
REMARK   53  A    between atoms: _132  and  _135
REMARK   54  A    between atoms: _135  and  _136
REMARK   55  A    between atoms: _136  and  _137
REMARK   56  A    between atoms: _137  and  _138
REMARK   57  A    between atoms: _138  and  _139
REMARK   58  A    between atoms: _143  and  _145
REMARK   59  A    between atoms: _145  and  _146
REMARK   60  A    between atoms: _145  and  _148
REMARK   61  A    between atoms: _148  and  _149
REMARK   62  A    between atoms: _152  and  _154
REMARK   63  A    between atoms: _154  and  _155
REMARK   64  A    between atoms: _154  and  _157
REMARK   65  A    between atoms: _157  and  _158
REMARK   66  A    between atoms: _161  and  _163
REMARK   67  A    between atoms: _163  and  _164
REMARK   68  A    between atoms: _163  and  _166
REMARK   69  A    between atoms: _166  and  _167
REMARK   70  A    between atoms: _172  and  _174
REMARK   71  A    between atoms: _174  and  _175
REMARK   72  A    between atoms: _174  and  _177
REMARK   73  A    between atoms: _177  and  _178
REMARK   74  A    between atoms: _178  and  _179
REMARK   75  A    between atoms: _179  and  _180
REMARK   76  A    between atoms: _180  and  _181
REMARK   77  A    between atoms: _185  and  _187
REMARK   78  A    between atoms: _187  and  _188
REMARK   79  A    between atoms: _187  and  _190
REMARK   80  A    between atoms: _190  and  _191
REMARK   81  A    between atoms: _191  and  _192
REMARK   82  A    between atoms: _192  and  _193
REMARK   83  A    between atoms: _202  and  _204
REMARK   84  A    between atoms: _204  and  _205
REMARK   85  A    between atoms: _204  and  _207
REMARK   86  A    between atoms: _207  and  _208
REMARK   87  A    between atoms: _211  and  _213
REMARK   88  A    between atoms: _213  and  _214
REMARK   89  A    between atoms: _213  and  _216
REMARK   90  A    between atoms: _216  and  _217
REMARK   91  A    between atoms: _222  and  _223
REMARK   92  A    between atoms: _225  and  _227
REMARK   93  A    between atoms: _227  and  _228
REMARK   94  A    between atoms: _227  and  _230
REMARK   95  A    between atoms: _230  and  _231
REMARK   96  A    between atoms: _231  and  _232
REMARK   97  A    between atoms: _232  and  _233
REMARK   98  A    between atoms: _242  and  _244
REMARK   99  A    between atoms: _244  and  _245
REMARK  100  A    between atoms: _244  and  _247
REMARK  101  A    between atoms: _247  and  _248
REMARK  102  A    between atoms: _248  and  _249
REMARK  103  A    between atoms: _252  and  _254
REMARK  104  A    between atoms: _254  and  _255
REMARK  105  A    between atoms: _254  and  _257
REMARK  106  A    between atoms: _257  and  _258
REMARK  107  A    between atoms: _261  and  _263
REMARK  108  A    between atoms: _263  and  _264
REMARK  109  A    between atoms: _263  and  _266
REMARK  110  A    between atoms: _266  and  _267
REMARK  111  A    between atoms: _267  and  _268
REMARK  112  A    between atoms: _268  and  _269
REMARK  113  A    between atoms: _278  and  _280
REMARK  114  A    between atoms: _280  and  _281
REMARK  115  A    between atoms: _280  and  _283
REMARK  116  A    between atoms: _283  and  _284
REMARK  117  A    between atoms: _287  and  _289
REMARK  118  A    between atoms: _289  and  _290
REMARK  119  A    between atoms: _289  and  _292
REMARK  120  A    between atoms: _292  and  _293
REMARK  121  A    between atoms: _296  and  _298
REMARK  122  A    between atoms: _298  and  _299
REMARK  123  A    between atoms: _298  and  _301
REMARK  124  A    between atoms: _301  and  _302
REMARK  125  A    between atoms: _307  and  _309
REMARK  126  A    between atoms: _309  and  _310
REMARK  127  A    between atoms: _309  and  _312
REMARK  128  A    between atoms: _312  and  _313
REMARK  129  A    between atoms: _313  and  _314
REMARK  130  A    between atoms: _316  and  _318
REMARK  131  A    between atoms: _318  and  _319
REMARK  132  A    between atoms: _318  and  _321
REMARK  133  A    between atoms: _321  and  _322
REMARK  134  A    between atoms: _327  and  _329
REMARK  135  A    between atoms: _329  and  _330
REMARK  136  A    between atoms: _329  and  _332
REMARK  137  A    between atoms: _335  and  _337
REMARK  138  A    between atoms: _337  and  _338
REMARK  139  A    between atoms: _337  and  _340
REMARK  140  A    between atoms: _340  and  _341
REMARK  141  A    between atoms: _344  and  _346
REMARK  142  A    between atoms: _346  and  _347
REMARK  143  A    between atoms: _349  and  _351
REMARK  144  A    between atoms: _351  and  _352
REMARK  145  A    between atoms: _351  and  _354
REMARK  146  A    between atoms: _354  and  _355
REMARK  147  A    between atoms: _358  and  _360
REMARK  148  A    between atoms: _360  and  _361
REMARK  149  A    between atoms: _360  and  _363
REMARK  150  A    between atoms: _363  and  _364
REMARK  151  A    between atoms: _367  and  _369
REMARK  152  A    between atoms: _369  and  _370
REMARK  153  A    between atoms: _369  and  _372
REMARK  154  A    between atoms: _372  and  _373
REMARK  155  A    between atoms: _376  and  _378
REMARK  156  A    between atoms: _378  and  _379
REMARK  157  A    between atoms: _378  and  _381
REMARK  158  A    between atoms: _381  and  _382
REMARK  159  A    between atoms: _387  and  _388
REMARK  160  A    between atoms: _390  and  _392
REMARK  161  A    between atoms: _392  and  _393
REMARK  162  A    between atoms: _392  and  _395
REMARK  163  A    between atoms: _395  and  _396
REMARK  164  A    between atoms: _399  and  _401
REMARK  165  A    between atoms: _401  and  _402
REMARK  166  A    between atoms: _401  and  _404
REMARK  167  A    between atoms: _407  and  _409
REMARK  168  A    between atoms: _409  and  _410
REMARK  169  A    between atoms: _409  and  _412
REMARK  170  A    between atoms: _412  and  _413
REMARK  171  A    between atoms: _416  and  _418
REMARK  172  A    between atoms: _418  and  _419
REMARK  173  A    between atoms: _418  and  _421
REMARK  174  A    between atoms: _421  and  _422
REMARK  175  A    between atoms: _427  and  _429
REMARK  176  A    between atoms: _429  and  _430
REMARK  177  A    between atoms: _429  and  _432
REMARK  178  A    between atoms: _432  and  _433
REMARK  179  A    between atoms: _436  and  _438
REMARK  180  A    between atoms: _438  and  _439
REMARK  181  A    between atoms: _438  and  _441
REMARK  182  A    between atoms: _441  and  _442
REMARK  183  A    between atoms: _442  and  _443
REMARK  184  A    between atoms: _445  and  _447
REMARK  185  A    between atoms: _447  and  _448
REMARK  186  A    between atoms: _450  and  _452
REMARK  187  A    between atoms: _452  and  _453
REMARK  188  A    between atoms: _456  and  _458
REMARK  189  A    between atoms: _458  and  _459
REMARK  190  A    between atoms: _458  and  _461
REMARK  191  A    between atoms: _461  and  _462
REMARK  192  A    between atoms: _465  and  _467
REMARK  193  A    between atoms: _467  and  _468
REMARK  194  A    between atoms: _467  and  _470
REMARK  195  A    between atoms: _470  and  _471
REMARK  196  A    between atoms: _476  and  _477
REMARK  197  A    between atoms: _479  and  _481
REMARK  198  A    between atoms: _481  and  _482
REMARK  199  A    between atoms: _481  and  _484
REMARK  200  A    between atoms: _484  and  _485
REMARK  201  A    between atoms: _488  and  _490
REMARK  202  A    between atoms: _490  and  _491
REMARK  203  A    between atoms: _490  and  _493
REMARK  204  A    between atoms: _493  and  _494
REMARK  205  A    between atoms: _497  and  _499
REMARK  206  A    between atoms: _499  and  _500
REMARK  207  A    between atoms: _499  and  _502
REMARK  208  A    between atoms: _502  and  _503
REMARK  209  A    between atoms: _506  and  _508
REMARK  210  A    between atoms: _508  and  _509
REMARK  211  A    between atoms: _508  and  _511
REMARK  212  A    between atoms: _511  and  _512
REMARK  213  A    between atoms: _517  and  _519
REMARK  214  A    between atoms: _519  and  _520
REMARK  215  A    between atoms: _519  and  _522
REMARK  216  A    between atoms: _522  and  _523
REMARK  217  A    between atoms: _523  and  _524
REMARK  218  A    between atoms: _524  and  _525
REMARK  219  A    between atoms: _534  and  _536
REMARK  220  A    between atoms: _536  and  _537
REMARK  221  A    between atoms: _536  and  _539
REMARK  222  A    between atoms: _539  and  _540
REMARK  223  A    between atoms: _543  and  _545
REMARK  224  A    between atoms: _545  and  _546
REMARK  225  A    between atoms: _545  and  _548
REMARK  226  A    between atoms: _548  and  _549
REMARK  227  A    between atoms: _552  and  _554
REMARK  228  A    between atoms: _554  and  _555
REMARK  229  A    between atoms: _554  and  _557
REMARK  230  A    between atoms: _557  and  _558
REMARK  231  A    between atoms: _563  and  _565
REMARK  232  A    between atoms: _565  and  _566
REMARK  233  A    between atoms: _565  and  _568
REMARK  234  A    between atoms: _568  and  _569
REMARK  235  A    between atoms: _572  and  _574
REMARK  236  A    between atoms: _574  and  _575
REMARK  237  A    between atoms: _578  and  _580
REMARK  238  A    between atoms: _580  and  _581
REMARK  239  A    between atoms: _580  and  _583
REMARK  240  A    between atoms: _583  and  _584
REMARK  241  A    between atoms: _584  and  _585
REMARK  242  A    between atoms: _585  and  _586
REMARK  243  A    between atoms: _586  and  _587
REMARK  244  A    between atoms: _591  and  _593
REMARK  245  A    between atoms: _593  and  _594
REMARK  246  A    between atoms: _593  and  _596
REMARK  247  A    between atoms: _596  and  _597
REMARK  248  A    between atoms: _600  and  _602
REMARK  249  A    between atoms: _602  and  _603
REMARK  250  A    between atoms: _602  and  _605
REMARK  251  A    between atoms: _605  and  _606
REMARK  252  A    between atoms: _609  and  _611
REMARK  253  A    between atoms: _611  and  _612
REMARK  254  A    between atoms: _611  and  _614
REMARK  255  A    between atoms: _614  and  _615
REMARK  256  A    between atoms: _618  and  _620
REMARK  257  A    between atoms: _620  and  _621
REMARK  258  A    between atoms: _620  and  _623
REMARK  259  A    between atoms: _623  and  _624
REMARK  260  A    between atoms: _630  and  _632
REMARK  261  A    between atoms: _632  and  _633
REMARK  262  A    between atoms: _635  and  _637
REMARK  263  A    between atoms: _637  and  _638
REMARK  264  A    between atoms: _637  and  _640
REMARK  265  A    between atoms: _640  and  _641
REMARK  266  A    between atoms: _644  and  _646
REMARK  267  A    between atoms: _646  and  _647
REMARK  268  A    between atoms: _646  and  _649
REMARK  269  A    between atoms: _649  and  _650
REMARK  270  A    between atoms: _653  and  _655
REMARK  271  A    between atoms: _655  and  _656
REMARK  272  A    between atoms: _655  and  _658
REMARK  273  A    between atoms: _658  and  _659
REMARK  274  A    between atoms: _664  and  _665
REMARK  275  A    between atoms: _667  and  _669
REMARK  276  A    between atoms: _669  and  _670
REMARK  277  A    between atoms: _669  and  _672
REMARK  278  A    between atoms: _672  and  _673
REMARK  279  A    between atoms: _673  and  _674
REMARK                            x       y       z     vdW  Elec       q    Type
REMARK                         _______ _______ _______ _____ _____    ______ ____
ROOT
ATOM      1  CG  TYR A   1      19.993 -18.502  -0.122  0.00  0.00    -0.020 A 
ATOM      2  CD2 TYR A   1      18.586 -18.529  -0.032  0.00  0.00    -0.001 A 
ATOM      3  CE2 TYR A   1      17.822 -17.761  -0.859  0.00  0.00    +0.036 A 
ATOM      4  CZ  TYR A   1      18.424 -16.952  -1.784  0.00  0.00    +0.134 A 
ATOM      5  CE1 TYR A   1      19.795 -16.920  -1.916  0.00  0.00    +0.036 A 
ATOM      6  CD1 TYR A   1      20.571 -17.685  -1.076  0.00  0.00    -0.001 A 
ENDROOT
BRANCH   4   7
ATOM      7  OH  TYR A   1      17.660 -16.192  -2.627  0.00  0.00    -0.506 OA
ATOM      8  HH  TYR A   1      16.703 -16.321  -2.409  0.00  0.00    +0.292 HD
ENDBRANCH   4   7
BRANCH   1   9
ATOM      9  CB  TYR A   1      20.851 -19.370   0.771  0.00  0.00    +0.051 C 
BRANCH   9  10
ATOM     10  CA  TYR A   1      20.484 -20.880   0.725  0.00  0.00    +0.137 C 
BRANCH  10  11
ATOM     11  N   TYR A   1      21.389 -21.640   1.566  0.00  0.00    -0.239 NA
ATOM     12  H   TYR A   1      22.406 -21.630   1.351  0.00  0.00    +0.142 HD
ENDBRANCH  10  11
BRANCH  10  13
ATOM     13  C   TYR A   1      20.582 -21.473  -0.674  0.00  0.00    +0.224 C 
ATOM     14  O   TYR A   1      21.656 -21.498  -1.260  0.00  0.00    -0.287 OA
ENDBRANCH  10  13
ENDBRANCH   9  10
ENDBRANCH   1   9
TORSDOF 5
REMARK  Name = ../refined-set-2016/3gcu/3gcu_pocket.pdb
REMARK  279 active torsions:
REMARK  status: ('A' for Active; 'I' for Inactive)
REMARK    1  A    between atoms: _2  and  _3
REMARK    2  A    between atoms: _8  and  _10
REMARK    3  A    between atoms: _10  and  _11
REMARK    4  A    between atoms: _10  and  _13
REMARK    5  A    between atoms: _16  and  _18
REMARK    6  A    between atoms: _18  and  _19
REMARK    7  A    between atoms: _21  and  _23
REMARK    8  A    between atoms: _23  and  _24
REMARK    9  A    between atoms: _23  and  _26
REMARK   10  A    between atoms: _26  and  _27
REMARK   11  A    between atoms: _29  and  _31
REMARK   12  A    between atoms: _31  and  _32
REMARK   13  A    between atoms: _31  and  _34
REMARK   14  A    between atoms: _34  and  _35
REMARK   15  A    between atoms: _40  and  _41
REMARK   16  A    between atoms: _43  and  _45
REMARK   17  A    between atoms: _45  and  _46
REMARK   18  A    between atoms: _45  and  _48
REMARK   19  A    between atoms: _48  and  _49
REMARK   20  A    between atoms: _51  and  _53
REMARK   21  A    between atoms: _53  and  _54
REMARK   22  A    between atoms: _53  and  _56
REMARK   23  A    between atoms: _59  and  _61
REMARK   24  A    between atoms: _61  and  _62
REMARK   25  A    between atoms: _61  and  _64
REMARK   26  A    between atoms: _66  and  _68
REMARK   27  A    between atoms: _68  and  _69
REMARK   28  A    between atoms: _72  and  _74
REMARK   29  A    between atoms: _74  and  _75
REMARK   30  A    between atoms: _78  and  _80
REMARK   31  A    between atoms: _80  and  _81
REMARK   32  A    between atoms: _80  and  _83
REMARK   33  A    between atoms: _83  and  _84
REMARK   34  A    between atoms: _84  and  _85
REMARK   35  A    between atoms: _85  and  _86
REMARK   36  A    between atoms: _95  and  _97
REMARK   37  A    between atoms: _97  and  _98
REMARK   38  A    between atoms: _97  and  _100
REMARK   39  A    between atoms: _103  and  _105
REMARK   40  A    between atoms: _105  and  _106
REMARK   41  A    between atoms: _109  and  _111
REMARK   42  A    between atoms: _111  and  _112
REMARK   43  A    between atoms: _111  and  _114
REMARK   44  A    between atoms: _117  and  _119
REMARK   45  A    between atoms: _119  and  _120
REMARK   46  A    between atoms: _119  and  _122
REMARK   47  A    between atoms: _122  and  _123
REMARK   48  A    between atoms: _123  and  _124
REMARK   49  A    between atoms: _124  and  _125
REMARK   50  A    between atoms: _125  and  _126
REMARK   51  A    between atoms: _130  and  _132
REMARK   52  A    between atoms: _132  and  _133
REMARK   53  A    between atoms: _132  and  _135
REMARK   54  A    between atoms: _135  and  _136
REMARK   55  A    between atoms: _136  and  _137
REMARK   56  A    between atoms: _137  and  _138
REMARK   57  A    between atoms: _138  and  _139
REMARK   58  A    between atoms: _143  and  _145
REMARK   59  A    between atoms: _145  and  _146
REMARK   60  A    between atoms: _145  and  _148
REMARK   61  A    between atoms: _148  and  _149
REMARK   62  A    between atoms: _152  and  _154
REMARK   63  A    between atoms: _154  and  _155
REMARK   64  A    between atoms: _154  and  _157
REMARK   65  A    between atoms: _157  and  _158
REMARK   66  A    between atoms: _161  and  _163
REMARK   67  A    between atoms: _163  and  _164
REMARK   68  A    between atoms: _163  and  _166
REMARK   69  A    between atoms: _166  and  _167
REMARK   70  A    between atoms: _172  and  _174
REMARK   71  A    between atoms: _174  and  _175
REMARK   72  A    between atoms: _174  and  _177
REMARK   73  A    between atoms: _177  and  _178
REMARK   74  A    between atoms: _178  and  _179
REMARK   75  A    between atoms: _179  and  _180
REMARK   76  A    between atoms: _180  and  _181
REMARK   77  A    between atoms: _185  and  _187
REMARK   78  A    between atoms: _187  and  _188
REMARK   79  A    between atoms: _187  and  _190
REMARK   80  A    between atoms: _190  and  _191
REMARK   81  A    between atoms: _191  and  _192
REMARK   82  A    between atoms: _192  and  _193
REMARK   83  A    between atoms: _202  and  _204
REMARK   84  A    between atoms: _204  and  _205
REMARK   85  A    between atoms: _204  and  _207
REMARK   86  A    between atoms: _207  and  _208
REMARK   87  A    between atoms: _211  and  _213
REMARK   88  A    between atoms: _213  and  _214
REMARK   89  A    between atoms: _213  and  _216
REMARK   90  A    between atoms: _216  and  _217
REMARK   91  A    between atoms: _222  and  _223
REMARK   92  A    between atoms: _225  and  _227
REMARK   93  A    between atoms: _227  and  _228
REMARK   94  A    between atoms: _227  and  _230
REMARK   95  A    between atoms: _230  and  _231
REMARK   96  A    between atoms: _231  and  _232
REMARK   97  A    between atoms: _232  and  _233
REMARK   98  A    between atoms: _242  and  _244
REMARK   99  A    between atoms: _244  and  _245
REMARK  100  A    between atoms: _244  and  _247
REMARK  101  A    between atoms: _247  and  _248
REMARK  102  A    between atoms: _248  and  _249
REMARK  103  A    between atoms: _252  and  _254
REMARK  104  A    between atoms: _254  and  _255
REMARK  105  A    between atoms: _254  and  _257
REMARK  106  A    between atoms: _257  and  _258
REMARK  107  A    between atoms: _261  and  _263
REMARK  108  A    between atoms: _263  and  _264
REMARK  109  A    between atoms: _263  and  _266
REMARK  110  A    between atoms: _266  and  _267
REMARK  111  A    between atoms: _267  and  _268
REMARK  112  A    between atoms: _268  and  _269
REMARK  113  A    between atoms: _278  and  _280
REMARK  114  A    between atoms: _280  and  _281
REMARK  115  A    between atoms: _280  and  _283
REMARK  116  A    between atoms: _283  and  _284
REMARK  117  A    between atoms: _287  and  _289
REMARK  118  A    between atoms: _289  and  _290
REMARK  119  A    between atoms: _289  and  _292
REMARK  120  A    between atoms: _292  and  _293
REMARK  121  A    between atoms: _296  and  _298
REMARK  122  A    between atoms: _298  and  _299
REMARK  123  A    between atoms: _298  and  _301
REMARK  124  A    between atoms: _301  and  _302
REMARK  125  A    between atoms: _307  and  _309
REMARK  126  A    between atoms: _309  and  _310
REMARK  127  A    between atoms: _309  and  _312
REMARK  128  A    between atoms: _312  and  _313
REMARK  129  A    between atoms: _313  and  _314
REMARK  130  A    between atoms: _316  and  _318
REMARK  131  A    between atoms: _318  and  _319
REMARK  132  A    between atoms: _318  and  _321
REMARK  133  A    between atoms: _321  and  _322
REMARK  134  A    between atoms: _327  and  _329
REMARK  135  A    between atoms: _329  and  _330
REMARK  136  A    between atoms: _329  and  _332
REMARK  137  A    between atoms: _335  and  _337
REMARK  138  A    between atoms: _337  and  _338
REMARK  139  A    between atoms: _337  and  _340
REMARK  140  A    between atoms: _340  and  _341
REMARK  141  A    between atoms: _344  and  _346
REMARK  142  A    between atoms: _346  and  _347
REMARK  143  A    between atoms: _349  and  _351
REMARK  144  A    between atoms: _351  and  _352
REMARK  145  A    between atoms: _351  and  _354
REMARK  146  A    between atoms: _354  and  _355
REMARK  147  A    between atoms: _358  and  _360
REMARK  148  A    between atoms: _360  and  _361
REMARK  149  A    between atoms: _360  and  _363
REMARK  150  A    between atoms: _363  and  _364
REMARK  151  A    between atoms: _367  and  _369
REMARK  152  A    between atoms: _369  and  _370
REMARK  153  A    between atoms: _369  and  _372
REMARK  154  A    between atoms: _372  and  _373
REMARK  155  A    between atoms: _376  and  _378
REMARK  156  A    between atoms: _378  and  _379
REMARK  157  A    between atoms: _378  and  _381
REMARK  158  A    between atoms: _381  and  _382
REMARK  159  A    between atoms: _387  and  _388
REMARK  160  A    between atoms: _390  and  _392
REMARK  161  A    between atoms: _392  and  _393
REMARK  162  A    between atoms: _392  and  _395
REMARK  163  A    between atoms: _395  and  _396
REMARK  164  A    between atoms: _399  and  _401
REMARK  165  A    between atoms: _401  and  _402
REMARK  166  A    between atoms: _401  and  _404
REMARK  167  A    between atoms: _407  and  _409
REMARK  168  A    between atoms: _409  and  _410
REMARK  169  A    between atoms: _409  and  _412
REMARK  170  A    between atoms: _412  and  _413
REMARK  171  A    between atoms: _416  and  _418
REMARK  172  A    between atoms: _418  and  _419
REMARK  173  A    between atoms: _418  and  _421
REMARK  174  A    between atoms: _421  and  _422
REMARK  175  A    between atoms: _427  and  _429
REMARK  176  A    between atoms: _429  and  _430
REMARK  177  A    between atoms: _429  and  _432
REMARK  178  A    between atoms: _432  and  _433
REMARK  179  A    between atoms: _436  and  _438
REMARK  180  A    between atoms: _438  and  _439
REMARK  181  A    between atoms: _438  and  _441
REMARK  182  A    between atoms: _441  and  _442
REMARK  183  A    between atoms: _442  and  _443
REMARK  184  A    between atoms: _445  and  _447
REMARK  185  A    between atoms: _447  and  _448
REMARK  186  A    between atoms: _450  and  _452
REMARK  187  A    between atoms: _452  and  _453
REMARK  188  A    between atoms: _456  and  _458
REMARK  189  A    between atoms: _458  and  _459
REMARK  190  A    between atoms: _458  and  _461
REMARK  191  A    between atoms: _461  and  _462
REMARK  192  A    between atoms: _465  and  _467
REMARK  193  A    between atoms: _467  and  _468
REMARK  194  A    between atoms: _467  and  _470
REMARK  195  A    between atoms: _470  and  _471
REMARK  196  A    between atoms: _476  and  _477
REMARK  197  A    between atoms: _479  and  _481
REMARK  198  A    between atoms: _481  and  _482
REMARK  199  A    between atoms: _481  and  _484
REMARK  200  A    between atoms: _484  and  _485
REMARK  201  A    between atoms: _488  and  _490
REMARK  202  A    between atoms: _490  and  _491
REMARK  203  A    between atoms: _490  and  _493
REMARK  204  A    between atoms: _493  and  _494
REMARK  205  A    between atoms: _497  and  _499
REMARK  206  A    between atoms: _499  and  _500
REMARK  207  A    between atoms: _499  and  _502
REMARK  208  A    between atoms: _502  and  _503
REMARK  209  A    between atoms: _506  and  _508
REMARK  210  A    between atoms: _508  and  _509
REMARK  211  A    between atoms: _508  and  _511
REMARK  212  A    between atoms: _511  and  _512
REMARK  213  A    between atoms: _517  and  _519
REMARK  214  A    between atoms: _519  and  _520
REMARK  215  A    between atoms: _519  and  _522
REMARK  216  A    between atoms: _522  and  _523
REMARK  217  A    between atoms: _523  and  _524
REMARK  218  A    between atoms: _524  and  _525
REMARK  219  A    between atoms: _534  and  _536
REMARK  220  A    between atoms: _536  and  _537
REMARK  221  A    between atoms: _536  and  _539
REMARK  222  A    between atoms: _539  and  _540
REMARK  223  A    between atoms: _543  and  _545
REMARK  224  A    between atoms: _545  and  _546
REMARK  225  A    between atoms: _545  and  _548
REMARK  226  A    between atoms: _548  and  _549
REMARK  227  A    between atoms: _552  and  _554
REMARK  228  A    between atoms: _554  and  _555
REMARK  229  A    between atoms: _554  and  _557
REMARK  230  A    between atoms: _557  and  _558
REMARK  231  A    between atoms: _563  and  _565
REMARK  232  A    between atoms: _565  and  _566
REMARK  233  A    between atoms: _565  and  _568
REMARK  234  A    between atoms: _568  and  _569
REMARK  235  A    between atoms: _572  and  _574
REMARK  236  A    between atoms: _574  and  _575
REMARK  237  A    between atoms: _578  and  _580
REMARK  238  A    between atoms: _580  and  _581
REMARK  239  A    between atoms: _580  and  _583
REMARK  240  A    between atoms: _583  and  _584
REMARK  241  A    between atoms: _584  and  _585
REMARK  242  A    between atoms: _585  and  _586
REMARK  243  A    between atoms: _586  and  _587
REMARK  244  A    between atoms: _591  and  _593
REMARK  245  A    between atoms: _593  and  _594
REMARK  246  A    between atoms: _593  and  _596
REMARK  247  A    between atoms: _596  and  _597
REMARK  248  A    between atoms: _600  and  _602
REMARK  249  A    between atoms: _602  and  _603
REMARK  250  A    between atoms: _602  and  _605
REMARK  251  A    between atoms: _605  and  _606
REMARK  252  A    between atoms: _609  and  _611
REMARK  253  A    between atoms: _611  and  _612
REMARK  254  A    between atoms: _611  and  _614
REMARK  255  A    between atoms: _614  and  _615
REMARK  256  A    between atoms: _618  and  _620
REMARK  257  A    between atoms: _620  and  _621
REMARK  258  A    between atoms: _620  and  _623
REMARK  259  A    between atoms: _623  and  _624
REMARK  260  A    between atoms: _630  and  _632
REMARK  261  A    between atoms: _632  and  _633
REMARK  262  A    between atoms: _635  and  _637
REMARK  263  A    between atoms: _637  and  _638
REMARK  264  A    between atoms: _637  and  _640
REMARK  265  A    between atoms: _640  and  _641
REMARK  266  A    between atoms: _644  and  _646
REMARK  267  A    between atoms: _646  and  _647
REMARK  268  A    between atoms: _646  and  _649
REMARK  269  A    between atoms: _649  and  _650
REMARK  270  A    between atoms: _653  and  _655
REMARK  271  A    between atoms: _655  and  _656
REMARK  272  A    between atoms: _655  and  _658
REMARK  273  A    between atoms: _658  and  _659
REMARK  274  A    between atoms: _664  and  _665
REMARK  275  A    between atoms: _667  and  _669
REMARK  276  A    between atoms: _669  and  _670
REMARK  277  A    between atoms: _669  and  _672
REMARK  278  A    between atoms: _672  and  _673
REMARK  279  A    between atoms: _673  and  _674
REMARK                            x       y       z     vdW  Elec       q    Type
REMARK                         _______ _______ _______ _____ _____    ______ ____
ROOT
ATOM      1  CA  GLU A   1      19.402 -18.024 -10.711  0.00  0.00    +0.134 C 
ENDROOT
BRANCH   1   2
ATOM      2  N   GLU A   1      18.689 -19.102 -10.019  0.00  0.00    -0.239 NA
ATOM      3  H   GLU A   1      19.044 -19.407  -9.090  0.00  0.00    +0.142 HD
ENDBRANCH   1   2
BRANCH   1   4
ATOM      4  C   GLU A   1      19.873 -18.481 -12.056  0.00  0.00    +0.224 C 
ATOM      5  O   GLU A   1      19.918 -17.694 -13.000  0.00  0.00    -0.287 OA
ENDBRANCH   1   4
BRANCH   1   6
ATOM      6  CB  GLU A   1      20.603 -17.537  -9.884  0.00  0.00    +0.037 C 
BRANCH   6   7
ATOM      7  CG  GLU A   1      20.210 -16.712  -8.634  0.00  0.00    +0.116 C 
BRANCH   7   8
ATOM      8  CD  GLU A   1      19.660 -15.321  -8.979  0.00  0.00    +0.365 C 
ATOM      9  OE2 GLU A   1      19.477 -14.525  -8.048  0.00  0.00    -0.246 OA
ATOM     10  OE1 GLU A   1      19.365 -15.037 -10.167  0.00  0.00    -0.246 OA
ENDBRANCH   7   8
ENDBRANCH   6   7
ENDBRANCH   1   6
TORSDOF 5
REMARK  Name = ../refined-set-2016/3gcu/3gcu_pocket.pdb
REMARK  279 active torsions:
REMARK  status: ('A' for Active; 'I' for Inactive)
REMARK    1  A    between atoms: _2  and  _3
REMARK    2  A    between atoms: _8  and  _10
REMARK    3  A    between atoms: _10  and  _11
REMARK    4  A    between atoms: _10  and  _13
REMARK    5  A    between atoms: _16  and  _18
REMARK    6  A    between atoms: _18  and  _19
REMARK    7  A    between atoms: _21  and  _23
REMARK    8  A    between atoms: _23  and  _24
REMARK    9  A    between atoms: _23  and  _26
REMARK   10  A    between atoms: _26  and  _27
REMARK   11  A    between atoms: _29  and  _31
REMARK   12  A    between atoms: _31  and  _32
REMARK   13  A    between atoms: _31  and  _34
REMARK   14  A    between atoms: _34  and  _35
REMARK   15  A    between atoms: _40  and  _41
REMARK   16  A    between atoms: _43  and  _45
REMARK   17  A    between atoms: _45  and  _46
REMARK   18  A    between atoms: _45  and  _48
REMARK   19  A    between atoms: _48  and  _49
REMARK   20  A    between atoms: _51  and  _53
REMARK   21  A    between atoms: _53  and  _54
REMARK   22  A    between atoms: _53  and  _56
REMARK   23  A    between atoms: _59  and  _61
REMARK   24  A    between atoms: _61  and  _62
REMARK   25  A    between atoms: _61  and  _64
REMARK   26  A    between atoms: _66  and  _68
REMARK   27  A    between atoms: _68  and  _69
REMARK   28  A    between atoms: _72  and  _74
REMARK   29  A    between atoms: _74  and  _75
REMARK   30  A    between atoms: _78  and  _80
REMARK   31  A    between atoms: _80  and  _81
REMARK   32  A    between atoms: _80  and  _83
REMARK   33  A    between atoms: _83  and  _84
REMARK   34  A    between atoms: _84  and  _85
REMARK   35  A    between atoms: _85  and  _86
REMARK   36  A    between atoms: _95  and  _97
REMARK   37  A    between atoms: _97  and  _98
REMARK   38  A    between atoms: _97  and  _100
REMARK   39  A    between atoms: _103  and  _105
REMARK   40  A    between atoms: _105  and  _106
REMARK   41  A    between atoms: _109  and  _111
REMARK   42  A    between atoms: _111  and  _112
REMARK   43  A    between atoms: _111  and  _114
REMARK   44  A    between atoms: _117  and  _119
REMARK   45  A    between atoms: _119  and  _120
REMARK   46  A    between atoms: _119  and  _122
REMARK   47  A    between atoms: _122  and  _123
REMARK   48  A    between atoms: _123  and  _124
REMARK   49  A    between atoms: _124  and  _125
REMARK   50  A    between atoms: _125  and  _126
REMARK   51  A    between atoms: _130  and  _132
REMARK   52  A    between atoms: _132  and  _133
REMARK   53  A    between atoms: _132  and  _135
REMARK   54  A    between atoms: _135  and  _136
REMARK   55  A    between atoms: _136  and  _137
REMARK   56  A    between atoms: _137  and  _138
REMARK   57  A    between atoms: _138  and  _139
REMARK   58  A    between atoms: _143  and  _145
REMARK   59  A    between atoms: _145  and  _146
REMARK   60  A    between atoms: _145  and  _148
REMARK   61  A    between atoms: _148  and  _149
REMARK   62  A    between atoms: _152  and  _154
REMARK   63  A    between atoms: _154  and  _155
REMARK   64  A    between atoms: _154  and  _157
REMARK   65  A    between atoms: _157  and  _158
REMARK   66  A    between atoms: _161  and  _163
REMARK   67  A    between atoms: _163  and  _164
REMARK   68  A    between atoms: _163  and  _166
REMARK   69  A    between atoms: _166  and  _167
REMARK   70  A    between atoms: _172  and  _174
REMARK   71  A    between atoms: _174  and  _175
REMARK   72  A    between atoms: _174  and  _177
REMARK   73  A    between atoms: _177  and  _178
REMARK   74  A    between atoms: _178  and  _179
REMARK   75  A    between atoms: _179  and  _180
REMARK   76  A    between atoms: _180  and  _181
REMARK   77  A    between atoms: _185  and  _187
REMARK   78  A    between atoms: _187  and  _188
REMARK   79  A    between atoms: _187  and  _190
REMARK   80  A    between atoms: _190  and  _191
REMARK   81  A    between atoms: _191  and  _192
REMARK   82  A    between atoms: _192  and  _193
REMARK   83  A    between atoms: _202  and  _204
REMARK   84  A    between atoms: _204  and  _205
REMARK   85  A    between atoms: _204  and  _207
REMARK   86  A    between atoms: _207  and  _208
REMARK   87  A    between atoms: _211  and  _213
REMARK   88  A    between atoms: _213  and  _214
REMARK   89  A    between atoms: _213  and  _216
REMARK   90  A    between atoms: _216  and  _217
REMARK   91  A    between atoms: _222  and  _223
REMARK   92  A    between atoms: _225  and  _227
REMARK   93  A    between atoms: _227  and  _228
REMARK   94  A    between atoms: _227  and  _230
REMARK   95  A    between atoms: _230  and  _231
REMARK   96  A    between atoms: _231  and  _232
REMARK   97  A    between atoms: _232  and  _233
REMARK   98  A    between atoms: _242  and  _244
REMARK   99  A    between atoms: _244  and  _245
REMARK  100  A    between atoms: _244  and  _247
REMARK  101  A    between atoms: _247  and  _248
REMARK  102  A    between atoms: _248  and  _249
REMARK  103  A    between atoms: _252  and  _254
REMARK  104  A    between atoms: _254  and  _255
REMARK  105  A    between atoms: _254  and  _257
REMARK  106  A    between atoms: _257  and  _258
REMARK  107  A    between atoms: _261  and  _263
REMARK  108  A    between atoms: _263  and  _264
REMARK  109  A    between atoms: _263  and  _266
REMARK  110  A    between atoms: _266  and  _267
REMARK  111  A    between atoms: _267  and  _268
REMARK  112  A    between atoms: _268  and  _269
REMARK  113  A    between atoms: _278  and  _280
REMARK  114  A    between atoms: _280  and  _281
REMARK  115  A    between atoms: _280  and  _283
REMARK  116  A    between atoms: _283  and  _284
REMARK  117  A    between atoms: _287  and  _289
REMARK  118  A    between atoms: _289  and  _290
REMARK  119  A    between atoms: _289  and  _292
REMARK  120  A    between atoms: _292  and  _293
REMARK  121  A    between atoms: _296  and  _298
REMARK  122  A    between atoms: _298  and  _299
REMARK  123  A    between atoms: _298  and  _301
REMARK  124  A    between atoms: _301  and  _302
REMARK  125  A    between atoms: _307  and  _309
REMARK  126  A    between atoms: _309  and  _310
REMARK  127  A    between atoms: _309  and  _312
REMARK  128  A    between atoms: _312  and  _313
REMARK  129  A    between atoms: _313  and  _314
REMARK  130  A    between atoms: _316  and  _318
REMARK  131  A    between atoms: _318  and  _319
REMARK  132  A    between atoms: _318  and  _321
REMARK  133  A    between atoms: _321  and  _322
REMARK  134  A    between atoms: _327  and  _329
REMARK  135  A    between atoms: _329  and  _330
REMARK  136  A    between atoms: _329  and  _332
REMARK  137  A    between atoms: _335  and  _337
REMARK  138  A    between atoms: _337  and  _338
REMARK  139  A    between atoms: _337  and  _340
REMARK  140  A    between atoms: _340  and  _341
REMARK  141  A    between atoms: _344  and  _346
REMARK  142  A    between atoms: _346  and  _347
REMARK  143  A    between atoms: _349  and  _351
REMARK  144  A    between atoms: _351  and  _352
REMARK  145  A    between atoms: _351  and  _354
REMARK  146  A    between atoms: _354  and  _355
REMARK  147  A    between atoms: _358  and  _360
REMARK  148  A    between atoms: _360  and  _361
REMARK  149  A    between atoms: _360  and  _363
REMARK  150  A    between atoms: _363  and  _364
REMARK  151  A    between atoms: _367  and  _369
REMARK  152  A    between atoms: _369  and  _370
REMARK  153  A    between atoms: _369  and  _372
REMARK  154  A    between atoms: _372  and  _373
REMARK  155  A    between atoms: _376  and  _378
REMARK  156  A    between atoms: _378  and  _379
REMARK  157  A    between atoms: _378  and  _381
REMARK  158  A    between atoms: _381  and  _382
REMARK  159  A    between atoms: _387  and  _388
REMARK  160  A    between atoms: _390  and  _392
REMARK  161  A    between atoms: _392  and  _393
REMARK  162  A    between atoms: _392  and  _395
REMARK  163  A    between atoms: _395  and  _396
REMARK  164  A    between atoms: _399  and  _401
REMARK  165  A    between atoms: _401  and  _402
REMARK  166  A    between atoms: _401  and  _404
REMARK  167  A    between atoms: _407  and  _409
REMARK  168  A    between atoms: _409  and  _410
REMARK  169  A    between atoms: _409  and  _412
REMARK  170  A    between atoms: _412  and  _413
REMARK  171  A    between atoms: _416  and  _418
REMARK  172  A    between atoms: _418  and  _419
REMARK  173  A    between atoms: _418  and  _421
REMARK  174  A    between atoms: _421  and  _422
REMARK  175  A    between atoms: _427  and  _429
REMARK  176  A    between atoms: _429  and  _430
REMARK  177  A    between atoms: _429  and  _432
REMARK  178  A    between atoms: _432  and  _433
REMARK  179  A    between atoms: _436  and  _438
REMARK  180  A    between atoms: _438  and  _439
REMARK  181  A    between atoms: _438  and  _441
REMARK  182  A    between atoms: _441  and  _442
REMARK  183  A    between atoms: _442  and  _443
REMARK  184  A    between atoms: _445  and  _447
REMARK  185  A    between atoms: _447  and  _448
REMARK  186  A    between atoms: _450  and  _452
REMARK  187  A    between atoms: _452  and  _453
REMARK  188  A    between atoms: _456  and  _458
REMARK  189  A    between atoms: _458  and  _459
REMARK  190  A    between atoms: _458  and  _461
REMARK  191  A    between atoms: _461  and  _462
REMARK  192  A    between atoms: _465  and  _467
REMARK  193  A    between atoms: _467  and  _468
REMARK  194  A    between atoms: _467  and  _470
REMARK  195  A    between atoms: _470  and  _471
REMARK  196  A    between atoms: _476  and  _477
REMARK  197  A    between atoms: _479  and  _481
REMARK  198  A    between atoms: _481  and  _482
REMARK  199  A    between atoms: _481  and  _484
REMARK  200  A    between atoms: _484  and  _485
REMARK  201  A    between atoms: _488  and  _490
REMARK  202  A    between atoms: _490  and  _491
REMARK  203  A    between atoms: _490  and  _493
REMARK  204  A    between atoms: _493  and  _494
REMARK  205  A    between atoms: _497  and  _499
REMARK  206  A    between atoms: _499  and  _500
REMARK  207  A    between atoms: _499  and  _502
REMARK  208  A    between atoms: _502  and  _503
REMARK  209  A    between atoms: _506  and  _508
REMARK  210  A    between atoms: _508  and  _509
REMARK  211  A    between atoms: _508  and  _511
REMARK  212  A    between atoms: _511  and  _512
REMARK  213  A    between atoms: _517  and  _519
REMARK  214  A    between atoms: _519  and  _520
REMARK  215  A    between atoms: _519  and  _522
REMARK  216  A    between atoms: _522  and  _523
REMARK  217  A    between atoms: _523  and  _524
REMARK  218  A    between atoms: _524  and  _525
REMARK  219  A    between atoms: _534  and  _536
REMARK  220  A    between atoms: _536  and  _537
REMARK  221  A    between atoms: _536  and  _539
REMARK  222  A    between atoms: _539  and  _540
REMARK  223  A    between atoms: _543  and  _545
REMARK  224  A    between atoms: _545  and  _546
REMARK  225  A    between atoms: _545  and  _548
REMARK  226  A    between atoms: _548  and  _549
REMARK  227  A    between atoms: _552  and  _554
REMARK  228  A    between atoms: _554  and  _555
REMARK  229  A    between atoms: _554  and  _557
REMARK  230  A    between atoms: _557  and  _558
REMARK  231  A    between atoms: _563  and  _565
REMARK  232  A    between atoms: _565  and  _566
REMARK  233  A    between atoms: _565  and  _568
REMARK  234  A    between atoms: _568  and  _569
REMARK  235  A    between atoms: _572  and  _574
REMARK  236  A    between atoms: _574  and  _575
REMARK  237  A    between atoms: _578  and  _580
REMARK  238  A    between atoms: _580  and  _581
REMARK  239  A    between atoms: _580  and  _583
REMARK  240  A    between atoms: _583  and  _584
REMARK  241  A    between atoms: _584  and  _585
REMARK  242  A    between atoms: _585  and  _586
REMARK  243  A    between atoms: _586  and  _587
REMARK  244  A    between atoms: _591  and  _593
REMARK  245  A    between atoms: _593  and  _594
REMARK  246  A    between atoms: _593  and  _596
REMARK  247  A    between atoms: _596  and  _597
REMARK  248  A    between atoms: _600  and  _602
REMARK  249  A    between atoms: _602  and  _603
REMARK  250  A    between atoms: _602  and  _605
REMARK  251  A    between atoms: _605  and  _606
REMARK  252  A    between atoms: _609  and  _611
REMARK  253  A    between atoms: _611  and  _612
REMARK  254  A    between atoms: _611  and  _614
REMARK  255  A    between atoms: _614  and  _615
REMARK  256  A    between atoms: _618  and  _620
REMARK  257  A    between atoms: _620  and  _621
REMARK  258  A    between atoms: _620  and  _623
REMARK  259  A    between atoms: _623  and  _624
REMARK  260  A    between atoms: _630  and  _632
REMARK  261  A    between atoms: _632  and  _633
REMARK  262  A    between atoms: _635  and  _637
REMARK  263  A    between atoms: _637  and  _638
REMARK  264  A    between atoms: _637  and  _640
REMARK  265  A    between atoms: _640  and  _641
REMARK  266  A    between atoms: _644  and  _646
REMARK  267  A    between atoms: _646  and  _647
REMARK  268  A    between atoms: _646  and  _649
REMARK  269  A    between atoms: _649  and  _650
REMARK  270  A    between atoms: _653  and  _655
REMARK  271  A    between atoms: _655  and  _656
REMARK  272  A    between atoms: _655  and  _658
REMARK  273  A    between atoms: _658  and  _659
REMARK  274  A    between atoms: _664  and  _665
REMARK  275  A    between atoms: _667  and  _669
REMARK  276  A    between atoms: _669  and  _670
REMARK  277  A    between atoms: _669  and  _672
REMARK  278  A    between atoms: _672  and  _673
REMARK  279  A    between atoms: _673  and  _674
REMARK                            x       y       z     vdW  Elec       q    Type
REMARK                         _______ _______ _______ _____ _____    ______ ____
ROOT
ATOM      1  O   HOH     1      13.906  -1.497  -2.254  0.00  0.00    +0.000 OA
ENDROOT
TORSDOF 0
REMARK  Name = ../refined-set-2016/3gcu/3gcu_pocket.pdb
REMARK  279 active torsions:
REMARK  status: ('A' for Active; 'I' for Inactive)
REMARK    1  A    between atoms: _2  and  _3
REMARK    2  A    between atoms: _8  and  _10
REMARK    3  A    between atoms: _10  and  _11
REMARK    4  A    between atoms: _10  and  _13
REMARK    5  A    between atoms: _16  and  _18
REMARK    6  A    between atoms: _18  and  _19
REMARK    7  A    between atoms: _21  and  _23
REMARK    8  A    between atoms: _23  and  _24
REMARK    9  A    between atoms: _23  and  _26
REMARK   10  A    between atoms: _26  and  _27
REMARK   11  A    between atoms: _29  and  _31
REMARK   12  A    between atoms: _31  and  _32
REMARK   13  A    between atoms: _31  and  _34
REMARK   14  A    between atoms: _34  and  _35
REMARK   15  A    between atoms: _40  and  _41
REMARK   16  A    between atoms: _43  and  _45
REMARK   17  A    between atoms: _45  and  _46
REMARK   18  A    between atoms: _45  and  _48
REMARK   19  A    between atoms: _48  and  _49
REMARK   20  A    between atoms: _51  and  _53
REMARK   21  A    between atoms: _53  and  _54
REMARK   22  A    between atoms: _53  and  _56
REMARK   23  A    between atoms: _59  and  _61
REMARK   24  A    between atoms: _61  and  _62
REMARK   25  A    between atoms: _61  and  _64
REMARK   26  A    between atoms: _66  and  _68
REMARK   27  A    between atoms: _68  and  _69
REMARK   28  A    between atoms: _72  and  _74
REMARK   29  A    between atoms: _74  and  _75
REMARK   30  A    between atoms: _78  and  _80
REMARK   31  A    between atoms: _80  and  _81
REMARK   32  A    between atoms: _80  and  _83
REMARK   33  A    between atoms: _83  and  _84
REMARK   34  A    between atoms: _84  and  _85
REMARK   35  A    between atoms: _85  and  _86
REMARK   36  A    between atoms: _95  and  _97
REMARK   37  A    between atoms: _97  and  _98
REMARK   38  A    between atoms: _97  and  _100
REMARK   39  A    between atoms: _103  and  _105
REMARK   40  A    between atoms: _105  and  _106
REMARK   41  A    between atoms: _109  and  _111
REMARK   42  A    between atoms: _111  and  _112
REMARK   43  A    between atoms: _111  and  _114
REMARK   44  A    between atoms: _117  and  _119
REMARK   45  A    between atoms: _119  and  _120
REMARK   46  A    between atoms: _119  and  _122
REMARK   47  A    between atoms: _122  and  _123
REMARK   48  A    between atoms: _123  and  _124
REMARK   49  A    between atoms: _124  and  _125
REMARK   50  A    between atoms: _125  and  _126
REMARK   51  A    between atoms: _130  and  _132
REMARK   52  A    between atoms: _132  and  _133
REMARK   53  A    between atoms: _132  and  _135
REMARK   54  A    between atoms: _135  and  _136
REMARK   55  A    between atoms: _136  and  _137
REMARK   56  A    between atoms: _137  and  _138
REMARK   57  A    between atoms: _138  and  _139
REMARK   58  A    between atoms: _143  and  _145
REMARK   59  A    between atoms: _145  and  _146
REMARK   60  A    between atoms: _145  and  _148
REMARK   61  A    between atoms: _148  and  _149
REMARK   62  A    between atoms: _152  and  _154
REMARK   63  A    between atoms: _154  and  _155
REMARK   64  A    between atoms: _154  and  _157
REMARK   65  A    between atoms: _157  and  _158
REMARK   66  A    between atoms: _161  and  _163
REMARK   67  A    between atoms: _163  and  _164
REMARK   68  A    between atoms: _163  and  _166
REMARK   69  A    between atoms: _166  and  _167
REMARK   70  A    between atoms: _172  and  _174
REMARK   71  A    between atoms: _174  and  _175
REMARK   72  A    between atoms: _174  and  _177
REMARK   73  A    between atoms: _177  and  _178
REMARK   74  A    between atoms: _178  and  _179
REMARK   75  A    between atoms: _179  and  _180
REMARK   76  A    between atoms: _180  and  _181
REMARK   77  A    between atoms: _185  and  _187
REMARK   78  A    between atoms: _187  and  _188
REMARK   79  A    between atoms: _187  and  _190
REMARK   80  A    between atoms: _190  and  _191
REMARK   81  A    between atoms: _191  and  _192
REMARK   82  A    between atoms: _192  and  _193
REMARK   83  A    between atoms: _202  and  _204
REMARK   84  A    between atoms: _204  and  _205
REMARK   85  A    between atoms: _204  and  _207
REMARK   86  A    between atoms: _207  and  _208
REMARK   87  A    between atoms: _211  and  _213
REMARK   88  A    between atoms: _213  and  _214
REMARK   89  A    between atoms: _213  and  _216
REMARK   90  A    between atoms: _216  and  _217
REMARK   91  A    between atoms: _222  and  _223
REMARK   92  A    between atoms: _225  and  _227
REMARK   93  A    between atoms: _227  and  _228
REMARK   94  A    between atoms: _227  and  _230
REMARK   95  A    between atoms: _230  and  _231
REMARK   96  A    between atoms: _231  and  _232
REMARK   97  A    between atoms: _232  and  _233
REMARK   98  A    between atoms: _242  and  _244
REMARK   99  A    between atoms: _244  and  _245
REMARK  100  A    between atoms: _244  and  _247
REMARK  101  A    between atoms: _247  and  _248
REMARK  102  A    between atoms: _248  and  _249
REMARK  103  A    between atoms: _252  and  _254
REMARK  104  A    between atoms: _254  and  _255
REMARK  105  A    between atoms: _254  and  _257
REMARK  106  A    between atoms: _257  and  _258
REMARK  107  A    between atoms: _261  and  _263
REMARK  108  A    between atoms: _263  and  _264
REMARK  109  A    between atoms: _263  and  _266
REMARK  110  A    between atoms: _266  and  _267
REMARK  111  A    between atoms: _267  and  _268
REMARK  112  A    between atoms: _268  and  _269
REMARK  113  A    between atoms: _278  and  _280
REMARK  114  A    between atoms: _280  and  _281
REMARK  115  A    between atoms: _280  and  _283
REMARK  116  A    between atoms: _283  and  _284
REMARK  117  A    between atoms: _287  and  _289
REMARK  118  A    between atoms: _289  and  _290
REMARK  119  A    between atoms: _289  and  _292
REMARK  120  A    between atoms: _292  and  _293
REMARK  121  A    between atoms: _296  and  _298
REMARK  122  A    between atoms: _298  and  _299
REMARK  123  A    between atoms: _298  and  _301
REMARK  124  A    between atoms: _301  and  _302
REMARK  125  A    between atoms: _307  and  _309
REMARK  126  A    between atoms: _309  and  _310
REMARK  127  A    between atoms: _309  and  _312
REMARK  128  A    between atoms: _312  and  _313
REMARK  129  A    between atoms: _313  and  _314
REMARK  130  A    between atoms: _316  and  _318
REMARK  131  A    between atoms: _318  and  _319
REMARK  132  A    between atoms: _318  and  _321
REMARK  133  A    between atoms: _321  and  _322
REMARK  134  A    between atoms: _327  and  _329
REMARK  135  A    between atoms: _329  and  _330
REMARK  136  A    between atoms: _329  and  _332
REMARK  137  A    between atoms: _335  and  _337
REMARK  138  A    between atoms: _337  and  _338
REMARK  139  A    between atoms: _337  and  _340
REMARK  140  A    between atoms: _340  and  _341
REMARK  141  A    between atoms: _344  and  _346
REMARK  142  A    between atoms: _346  and  _347
REMARK  143  A    between atoms: _349  and  _351
REMARK  144  A    between atoms: _351  and  _352
REMARK  145  A    between atoms: _351  and  _354
REMARK  146  A    between atoms: _354  and  _355
REMARK  147  A    between atoms: _358  and  _360
REMARK  148  A    between atoms: _360  and  _361
REMARK  149  A    between atoms: _360  and  _363
REMARK  150  A    between atoms: _363  and  _364
REMARK  151  A    between atoms: _367  and  _369
REMARK  152  A    between atoms: _369  and  _370
REMARK  153  A    between atoms: _369  and  _372
REMARK  154  A    between atoms: _372  and  _373
REMARK  155  A    between atoms: _376  and  _378
REMARK  156  A    between atoms: _378  and  _379
REMARK  157  A    between atoms: _378  and  _381
REMARK  158  A    between atoms: _381  and  _382
REMARK  159  A    between atoms: _387  and  _388
REMARK  160  A    between atoms: _390  and  _392
REMARK  161  A    between atoms: _392  and  _393
REMARK  162  A    between atoms: _392  and  _395
REMARK  163  A    between atoms: _395  and  _396
REMARK  164  A    between atoms: _399  and  _401
REMARK  165  A    between atoms: _401  and  _402
REMARK  166  A    between atoms: _401  and  _404
REMARK  167  A    between atoms: _407  and  _409
REMARK  168  A    between atoms: _409  and  _410
REMARK  169  A    between atoms: _409  and  _412
REMARK  170  A    between atoms: _412  and  _413
REMARK  171  A    between atoms: _416  and  _418
REMARK  172  A    between atoms: _418  and  _419
REMARK  173  A    between atoms: _418  and  _421
REMARK  174  A    between atoms: _421  and  _422
REMARK  175  A    between atoms: _427  and  _429
REMARK  176  A    between atoms: _429  and  _430
REMARK  177  A    between atoms: _429  and  _432
REMARK  178  A    between atoms: _432  and  _433
REMARK  179  A    between atoms: _436  and  _438
REMARK  180  A    between atoms: _438  and  _439
REMARK  181  A    between atoms: _438  and  _441
REMARK  182  A    between atoms: _441  and  _442
REMARK  183  A    between atoms: _442  and  _443
REMARK  184  A    between atoms: _445  and  _447
REMARK  185  A    between atoms: _447  and  _448
REMARK  186  A    between atoms: _450  and  _452
REMARK  187  A    between atoms: _452  and  _453
REMARK  188  A    between atoms: _456  and  _458
REMARK  189  A    between atoms: _458  and  _459
REMARK  190  A    between atoms: _458  and  _461
REMARK  191  A    between atoms: _461  and  _462
REMARK  192  A    between atoms: _465  and  _467
REMARK  193  A    between atoms: _467  and  _468
REMARK  194  A    between atoms: _467  and  _470
REMARK  195  A    between atoms: _470  and  _471
REMARK  196  A    between atoms: _476  and  _477
REMARK  197  A    between atoms: _479  and  _481
REMARK  198  A    between atoms: _481  and  _482
REMARK  199  A    between atoms: _481  and  _484
REMARK  200  A    between atoms: _484  and  _485
REMARK  201  A    between atoms: _488  and  _490
REMARK  202  A    between atoms: _490  and  _491
REMARK  203  A    between atoms: _490  and  _493
REMARK  204  A    between atoms: _493  and  _494
REMARK  205  A    between atoms: _497  and  _499
REMARK  206  A    between atoms: _499  and  _500
REMARK  207  A    between atoms: _499  and  _502
REMARK  208  A    between atoms: _502  and  _503
REMARK  209  A    between atoms: _506  and  _508
REMARK  210  A    between atoms: _508  and  _509
REMARK  211  A    between atoms: _508  and  _511
REMARK  212  A    between atoms: _511  and  _512
REMARK  213  A    between atoms: _517  and  _519
REMARK  214  A    between atoms: _519  and  _520
REMARK  215  A    between atoms: _519  and  _522
REMARK  216  A    between atoms: _522  and  _523
REMARK  217  A    between atoms: _523  and  _524
REMARK  218  A    between atoms: _524  and  _525
REMARK  219  A    between atoms: _534  and  _536
REMARK  220  A    between atoms: _536  and  _537
REMARK  221  A    between atoms: _536  and  _539
REMARK  222  A    between atoms: _539  and  _540
REMARK  223  A    between atoms: _543  and  _545
REMARK  224  A    between atoms: _545  and  _546
REMARK  225  A    between atoms: _545  and  _548
REMARK  226  A    between atoms: _548  and  _549
REMARK  227  A    between atoms: _552  and  _554
REMARK  228  A    between atoms: _554  and  _555
REMARK  229  A    between atoms: _554  and  _557
REMARK  230  A    between atoms: _557  and  _558
REMARK  231  A    between atoms: _563  and  _565
REMARK  232  A    between atoms: _565  and  _566
REMARK  233  A    between atoms: _565  and  _568
REMARK  234  A    between atoms: _568  and  _569
REMARK  235  A    between atoms: _572  and  _574
REMARK  236  A    between atoms: _574  and  _575
REMARK  237  A    between atoms: _578  and  _580
REMARK  238  A    between atoms: _580  and  _581
REMARK  239  A    between atoms: _580  and  _583
REMARK  240  A    between atoms: _583  and  _584
REMARK  241  A    between atoms: _584  and  _585
REMARK  242  A    between atoms: _585  and  _586
REMARK  243  A    between atoms: _586  and  _587
REMARK  244  A    between atoms: _591  and  _593
REMARK  245  A    between atoms: _593  and  _594
REMARK  246  A    between atoms: _593  and  _596
REMARK  247  A    between atoms: _596  and  _597
REMARK  248  A    between atoms: _600  and  _602
REMARK  249  A    between atoms: _602  and  _603
REMARK  250  A    between atoms: _602  and  _605
REMARK  251  A    between atoms: _605  and  _606
REMARK  252  A    between atoms: _609  and  _611
REMARK  253  A    between atoms: _611  and  _612
REMARK  254  A    between atoms: _611  and  _614
REMARK  255  A    between atoms: _614  and  _615
REMARK  256  A    between atoms: _618  and  _620
REMARK  257  A    between atoms: _620  and  _621
REMARK  258  A    between atoms: _620  and  _623
REMARK  259  A    between atoms: _623  and  _624
REMARK  260  A    between atoms: _630  and  _632
REMARK  261  A    between atoms: _632  and  _633
REMARK  262  A    between atoms: _635  and  _637
REMARK  263  A    between atoms: _637  and  _638
REMARK  264  A    between atoms: _637  and  _640
REMARK  265  A    between atoms: _640  and  _641
REMARK  266  A    between atoms: _644  and  _646
REMARK  267  A    between atoms: _646  and  _647
REMARK  268  A    between atoms: _646  and  _649
REMARK  269  A    between atoms: _649  and  _650
REMARK  270  A    between atoms: _653  and  _655
REMARK  271  A    between atoms: _655  and  _656
REMARK  272  A    between atoms: _655  and  _658
REMARK  273  A    between atoms: _658  and  _659
REMARK  274  A    between atoms: _664  and  _665
REMARK  275  A    between atoms: _667  and  _669
REMARK  276  A    between atoms: _669  and  _670
REMARK  277  A    between atoms: _669  and  _672
REMARK  278  A    between atoms: _672  and  _673
REMARK  279  A    between atoms: _673  and  _674
REMARK                            x       y       z     vdW  Elec       q    Type
REMARK                         _______ _______ _______ _____ _____    ______ ____
ROOT
ATOM      1  O   HOH     1      20.016 -14.771  -5.407  0.00  0.00    +0.000 OA
ENDROOT
TORSDOF 0
REMARK  Name = ../refined-set-2016/3gcu/3gcu_pocket.pdb
REMARK  279 active torsions:
REMARK  status: ('A' for Active; 'I' for Inactive)
REMARK    1  A    between atoms: _2  and  _3
REMARK    2  A    between atoms: _8  and  _10
REMARK    3  A    between atoms: _10  and  _11
REMARK    4  A    between atoms: _10  and  _13
REMARK    5  A    between atoms: _16  and  _18
REMARK    6  A    between atoms: _18  and  _19
REMARK    7  A    between atoms: _21  and  _23
REMARK    8  A    between atoms: _23  and  _24
REMARK    9  A    between atoms: _23  and  _26
REMARK   10  A    between atoms: _26  and  _27
REMARK   11  A    between atoms: _29  and  _31
REMARK   12  A    between atoms: _31  and  _32
REMARK   13  A    between atoms: _31  and  _34
REMARK   14  A    between atoms: _34  and  _35
REMARK   15  A    between atoms: _40  and  _41
REMARK   16  A    between atoms: _43  and  _45
REMARK   17  A    between atoms: _45  and  _46
REMARK   18  A    between atoms: _45  and  _48
REMARK   19  A    between atoms: _48  and  _49
REMARK   20  A    between atoms: _51  and  _53
REMARK   21  A    between atoms: _53  and  _54
REMARK   22  A    between atoms: _53  and  _56
REMARK   23  A    between atoms: _59  and  _61
REMARK   24  A    between atoms: _61  and  _62
REMARK   25  A    between atoms: _61  and  _64
REMARK   26  A    between atoms: _66  and  _68
REMARK   27  A    between atoms: _68  and  _69
REMARK   28  A    between atoms: _72  and  _74
REMARK   29  A    between atoms: _74  and  _75
REMARK   30  A    between atoms: _78  and  _80
REMARK   31  A    between atoms: _80  and  _81
REMARK   32  A    between atoms: _80  and  _83
REMARK   33  A    between atoms: _83  and  _84
REMARK   34  A    between atoms: _84  and  _85
REMARK   35  A    between atoms: _85  and  _86
REMARK   36  A    between atoms: _95  and  _97
REMARK   37  A    between atoms: _97  and  _98
REMARK   38  A    between atoms: _97  and  _100
REMARK   39  A    between atoms: _103  and  _105
REMARK   40  A    between atoms: _105  and  _106
REMARK   41  A    between atoms: _109  and  _111
REMARK   42  A    between atoms: _111  and  _112
REMARK   43  A    between atoms: _111  and  _114
REMARK   44  A    between atoms: _117  and  _119
REMARK   45  A    between atoms: _119  and  _120
REMARK   46  A    between atoms: _119  and  _122
REMARK   47  A    between atoms: _122  and  _123
REMARK   48  A    between atoms: _123  and  _124
REMARK   49  A    between atoms: _124  and  _125
REMARK   50  A    between atoms: _125  and  _126
REMARK   51  A    between atoms: _130  and  _132
REMARK   52  A    between atoms: _132  and  _133
REMARK   53  A    between atoms: _132  and  _135
REMARK   54  A    between atoms: _135  and  _136
REMARK   55  A    between atoms: _136  and  _137
REMARK   56  A    between atoms: _137  and  _138
REMARK   57  A    between atoms: _138  and  _139
REMARK   58  A    between atoms: _143  and  _145
REMARK   59  A    between atoms: _145  and  _146
REMARK   60  A    between atoms: _145  and  _148
REMARK   61  A    between atoms: _148  and  _149
REMARK   62  A    between atoms: _152  and  _154
REMARK   63  A    between atoms: _154  and  _155
REMARK   64  A    between atoms: _154  and  _157
REMARK   65  A    between atoms: _157  and  _158
REMARK   66  A    between atoms: _161  and  _163
REMARK   67  A    between atoms: _163  and  _164
REMARK   68  A    between atoms: _163  and  _166
REMARK   69  A    between atoms: _166  and  _167
REMARK   70  A    between atoms: _172  and  _174
REMARK   71  A    between atoms: _174  and  _175
REMARK   72  A    between atoms: _174  and  _177
REMARK   73  A    between atoms: _177  and  _178
REMARK   74  A    between atoms: _178  and  _179
REMARK   75  A    between atoms: _179  and  _180
REMARK   76  A    between atoms: _180  and  _181
REMARK   77  A    between atoms: _185  and  _187
REMARK   78  A    between atoms: _187  and  _188
REMARK   79  A    between atoms: _187  and  _190
REMARK   80  A    between atoms: _190  and  _191
REMARK   81  A    between atoms: _191  and  _192
REMARK   82  A    between atoms: _192  and  _193
REMARK   83  A    between atoms: _202  and  _204
REMARK   84  A    between atoms: _204  and  _205
REMARK   85  A    between atoms: _204  and  _207
REMARK   86  A    between atoms: _207  and  _208
REMARK   87  A    between atoms: _211  and  _213
REMARK   88  A    between atoms: _213  and  _214
REMARK   89  A    between atoms: _213  and  _216
REMARK   90  A    between atoms: _216  and  _217
REMARK   91  A    between atoms: _222  and  _223
REMARK   92  A    between atoms: _225  and  _227
REMARK   93  A    between atoms: _227  and  _228
REMARK   94  A    between atoms: _227  and  _230
REMARK   95  A    between atoms: _230  and  _231
REMARK   96  A    between atoms: _231  and  _232
REMARK   97  A    between atoms: _232  and  _233
REMARK   98  A    between atoms: _242  and  _244
REMARK   99  A    between atoms: _244  and  _245
REMARK  100  A    between atoms: _244  and  _247
REMARK  101  A    between atoms: _247  and  _248
REMARK  102  A    between atoms: _248  and  _249
REMARK  103  A    between atoms: _252  and  _254
REMARK  104  A    between atoms: _254  and  _255
REMARK  105  A    between atoms: _254  and  _257
REMARK  106  A    between atoms: _257  and  _258
REMARK  107  A    between atoms: _261  and  _263
REMARK  108  A    between atoms: _263  and  _264
REMARK  109  A    between atoms: _263  and  _266
REMARK  110  A    between atoms: _266  and  _267
REMARK  111  A    between atoms: _267  and  _268
REMARK  112  A    between atoms: _268  and  _269
REMARK  113  A    between atoms: _278  and  _280
REMARK  114  A    between atoms: _280  and  _281
REMARK  115  A    between atoms: _280  and  _283
REMARK  116  A    between atoms: _283  and  _284
REMARK  117  A    between atoms: _287  and  _289
REMARK  118  A    between atoms: _289  and  _290
REMARK  119  A    between atoms: _289  and  _292
REMARK  120  A    between atoms: _292  and  _293
REMARK  121  A    between atoms: _296  and  _298
REMARK  122  A    between atoms: _298  and  _299
REMARK  123  A    between atoms: _298  and  _301
REMARK  124  A    between atoms: _301  and  _302
REMARK  125  A    between atoms: _307  and  _309
REMARK  126  A    between atoms: _309  and  _310
REMARK  127  A    between atoms: _309  and  _312
REMARK  128  A    between atoms: _312  and  _313
REMARK  129  A    between atoms: _313  and  _314
REMARK  130  A    between atoms: _316  and  _318
REMARK  131  A    between atoms: _318  and  _319
REMARK  132  A    between atoms: _318  and  _321
REMARK  133  A    between atoms: _321  and  _322
REMARK  134  A    between atoms: _327  and  _329
REMARK  135  A    between atoms: _329  and  _330
REMARK  136  A    between atoms: _329  and  _332
REMARK  137  A    between atoms: _335  and  _337
REMARK  138  A    between atoms: _337  and  _338
REMARK  139  A    between atoms: _337  and  _340
REMARK  140  A    between atoms: _340  and  _341
REMARK  141  A    between atoms: _344  and  _346
REMARK  142  A    between atoms: _346  and  _347
REMARK  143  A    between atoms: _349  and  _351
REMARK  144  A    between atoms: _351  and  _352
REMARK  145  A    between atoms: _351  and  _354
REMARK  146  A    between atoms: _354  and  _355
REMARK  147  A    between atoms: _358  and  _360
REMARK  148  A    between atoms: _360  and  _361
REMARK  149  A    between atoms: _360  and  _363
REMARK  150  A    between atoms: _363  and  _364
REMARK  151  A    between atoms: _367  and  _369
REMARK  152  A    between atoms: _369  and  _370
REMARK  153  A    between atoms: _369  and  _372
REMARK  154  A    between atoms: _372  and  _373
REMARK  155  A    between atoms: _376  and  _378
REMARK  156  A    between atoms: _378  and  _379
REMARK  157  A    between atoms: _378  and  _381
REMARK  158  A    between atoms: _381  and  _382
REMARK  159  A    between atoms: _387  and  _388
REMARK  160  A    between atoms: _390  and  _392
REMARK  161  A    between atoms: _392  and  _393
REMARK  162  A    between atoms: _392  and  _395
REMARK  163  A    between atoms: _395  and  _396
REMARK  164  A    between atoms: _399  and  _401
REMARK  165  A    between atoms: _401  and  _402
REMARK  166  A    between atoms: _401  and  _404
REMARK  167  A    between atoms: _407  and  _409
REMARK  168  A    between atoms: _409  and  _410
REMARK  169  A    between atoms: _409  and  _412
REMARK  170  A    between atoms: _412  and  _413
REMARK  171  A    between atoms: _416  and  _418
REMARK  172  A    between atoms: _418  and  _419
REMARK  173  A    between atoms: _418  and  _421
REMARK  174  A    between atoms: _421  and  _422
REMARK  175  A    between atoms: _427  and  _429
REMARK  176  A    between atoms: _429  and  _430
REMARK  177  A    between atoms: _429  and  _432
REMARK  178  A    between atoms: _432  and  _433
REMARK  179  A    between atoms: _436  and  _438
REMARK  180  A    between atoms: _438  and  _439
REMARK  181  A    between atoms: _438  and  _441
REMARK  182  A    between atoms: _441  and  _442
REMARK  183  A    between atoms: _442  and  _443
REMARK  184  A    between atoms: _445  and  _447
REMARK  185  A    between atoms: _447  and  _448
REMARK  186  A    between atoms: _450  and  _452
REMARK  187  A    between atoms: _452  and  _453
REMARK  188  A    between atoms: _456  and  _458
REMARK  189  A    between atoms: _458  and  _459
REMARK  190  A    between atoms: _458  and  _461
REMARK  191  A    between atoms: _461  and  _462
REMARK  192  A    between atoms: _465  and  _467
REMARK  193  A    between atoms: _467  and  _468
REMARK  194  A    between atoms: _467  and  _470
REMARK  195  A    between atoms: _470  and  _471
REMARK  196  A    between atoms: _476  and  _477
REMARK  197  A    between atoms: _479  and  _481
REMARK  198  A    between atoms: _481  and  _482
REMARK  199  A    between atoms: _481  and  _484
REMARK  200  A    between atoms: _484  and  _485
REMARK  201  A    between atoms: _488  and  _490
REMARK  202  A    between atoms: _490  and  _491
REMARK  203  A    between atoms: _490  and  _493
REMARK  204  A    between atoms: _493  and  _494
REMARK  205  A    between atoms: _497  and  _499
REMARK  206  A    between atoms: _499  and  _500
REMARK  207  A    between atoms: _499  and  _502
REMARK  208  A    between atoms: _502  and  _503
REMARK  209  A    between atoms: _506  and  _508
REMARK  210  A    between atoms: _508  and  _509
REMARK  211  A    between atoms: _508  and  _511
REMARK  212  A    between atoms: _511  and  _512
REMARK  213  A    between atoms: _517  and  _519
REMARK  214  A    between atoms: _519  and  _520
REMARK  215  A    between atoms: _519  and  _522
REMARK  216  A    between atoms: _522  and  _523
REMARK  217  A    between atoms: _523  and  _524
REMARK  218  A    between atoms: _524  and  _525
REMARK  219  A    between atoms: _534  and  _536
REMARK  220  A    between atoms: _536  and  _537
REMARK  221  A    between atoms: _536  and  _539
REMARK  222  A    between atoms: _539  and  _540
REMARK  223  A    between atoms: _543  and  _545
REMARK  224  A    between atoms: _545  and  _546
REMARK  225  A    between atoms: _545  and  _548
REMARK  226  A    between atoms: _548  and  _549
REMARK  227  A    between atoms: _552  and  _554
REMARK  228  A    between atoms: _554  and  _555
REMARK  229  A    between atoms: _554  and  _557
REMARK  230  A    between atoms: _557  and  _558
REMARK  231  A    between atoms: _563  and  _565
REMARK  232  A    between atoms: _565  and  _566
REMARK  233  A    between atoms: _565  and  _568
REMARK  234  A    between atoms: _568  and  _569
REMARK  235  A    between atoms: _572  and  _574
REMARK  236  A    between atoms: _574  and  _575
REMARK  237  A    between atoms: _578  and  _580
REMARK  238  A    between atoms: _580  and  _581
REMARK  239  A    between atoms: _580  and  _583
REMARK  240  A    between atoms: _583  and  _584
REMARK  241  A    between atoms: _584  and  _585
REMARK  242  A    between atoms: _585  and  _586
REMARK  243  A    between atoms: _586  and  _587
REMARK  244  A    between atoms: _591  and  _593
REMARK  245  A    between atoms: _593  and  _594
REMARK  246  A    between atoms: _593  and  _596
REMARK  247  A    between atoms: _596  and  _597
REMARK  248  A    between atoms: _600  and  _602
REMARK  249  A    between atoms: _602  and  _603
REMARK  250  A    between atoms: _602  and  _605
REMARK  251  A    between atoms: _605  and  _606
REMARK  252  A    between atoms: _609  and  _611
REMARK  253  A    between atoms: _611  and  _612
REMARK  254  A    between atoms: _611  and  _614
REMARK  255  A    between atoms: _614  and  _615
REMARK  256  A    between atoms: _618  and  _620
REMARK  257  A    between atoms: _620  and  _621
REMARK  258  A    between atoms: _620  and  _623
REMARK  259  A    between atoms: _623  and  _624
REMARK  260  A    between atoms: _630  and  _632
REMARK  261  A    between atoms: _632  and  _633
REMARK  262  A    between atoms: _635  and  _637
REMARK  263  A    between atoms: _637  and  _638
REMARK  264  A    between atoms: _637  and  _640
REMARK  265  A    between atoms: _640  and  _641
REMARK  266  A    between atoms: _644  and  _646
REMARK  267  A    between atoms: _646  and  _647
REMARK  268  A    between atoms: _646  and  _649
REMARK  269  A    between atoms: _649  and  _650
REMARK  270  A    between atoms: _653  and  _655
REMARK  271  A    between atoms: _655  and  _656
REMARK  272  A    between atoms: _655  and  _658
REMARK  273  A    between atoms: _658  and  _659
REMARK  274  A    between atoms: _664  and  _665
REMARK  275  A    between atoms: _667  and  _669
REMARK  276  A    between atoms: _669  and  _670
REMARK  277  A    between atoms: _669  and  _672
REMARK  278  A    between atoms: _672  and  _673
REMARK  279  A    between atoms: _673  and  _674
REMARK                            x       y       z     vdW  Elec       q    Type
REMARK                         _______ _______ _______ _____ _____    ______ ____
ROOT
ATOM      1  O   HOH     1      24.592 -12.398  -5.009  0.00  0.00    +0.000 OA
ENDROOT
TORSDOF 0
REMARK  Name = ../refined-set-2016/3gcu/3gcu_pocket.pdb
REMARK  279 active torsions:
REMARK  status: ('A' for Active; 'I' for Inactive)
REMARK    1  A    between atoms: _2  and  _3
REMARK    2  A    between atoms: _8  and  _10
REMARK    3  A    between atoms: _10  and  _11
REMARK    4  A    between atoms: _10  and  _13
REMARK    5  A    between atoms: _16  and  _18
REMARK    6  A    between atoms: _18  and  _19
REMARK    7  A    between atoms: _21  and  _23
REMARK    8  A    between atoms: _23  and  _24
REMARK    9  A    between atoms: _23  and  _26
REMARK   10  A    between atoms: _26  and  _27
REMARK   11  A    between atoms: _29  and  _31
REMARK   12  A    between atoms: _31  and  _32
REMARK   13  A    between atoms: _31  and  _34
REMARK   14  A    between atoms: _34  and  _35
REMARK   15  A    between atoms: _40  and  _41
REMARK   16  A    between atoms: _43  and  _45
REMARK   17  A    between atoms: _45  and  _46
REMARK   18  A    between atoms: _45  and  _48
REMARK   19  A    between atoms: _48  and  _49
REMARK   20  A    between atoms: _51  and  _53
REMARK   21  A    between atoms: _53  and  _54
REMARK   22  A    between atoms: _53  and  _56
REMARK   23  A    between atoms: _59  and  _61
REMARK   24  A    between atoms: _61  and  _62
REMARK   25  A    between atoms: _61  and  _64
REMARK   26  A    between atoms: _66  and  _68
REMARK   27  A    between atoms: _68  and  _69
REMARK   28  A    between atoms: _72  and  _74
REMARK   29  A    between atoms: _74  and  _75
REMARK   30  A    between atoms: _78  and  _80
REMARK   31  A    between atoms: _80  and  _81
REMARK   32  A    between atoms: _80  and  _83
REMARK   33  A    between atoms: _83  and  _84
REMARK   34  A    between atoms: _84  and  _85
REMARK   35  A    between atoms: _85  and  _86
REMARK   36  A    between atoms: _95  and  _97
REMARK   37  A    between atoms: _97  and  _98
REMARK   38  A    between atoms: _97  and  _100
REMARK   39  A    between atoms: _103  and  _105
REMARK   40  A    between atoms: _105  and  _106
REMARK   41  A    between atoms: _109  and  _111
REMARK   42  A    between atoms: _111  and  _112
REMARK   43  A    between atoms: _111  and  _114
REMARK   44  A    between atoms: _117  and  _119
REMARK   45  A    between atoms: _119  and  _120
REMARK   46  A    between atoms: _119  and  _122
REMARK   47  A    between atoms: _122  and  _123
REMARK   48  A    between atoms: _123  and  _124
REMARK   49  A    between atoms: _124  and  _125
REMARK   50  A    between atoms: _125  and  _126
REMARK   51  A    between atoms: _130  and  _132
REMARK   52  A    between atoms: _132  and  _133
REMARK   53  A    between atoms: _132  and  _135
REMARK   54  A    between atoms: _135  and  _136
REMARK   55  A    between atoms: _136  and  _137
REMARK   56  A    between atoms: _137  and  _138
REMARK   57  A    between atoms: _138  and  _139
REMARK   58  A    between atoms: _143  and  _145
REMARK   59  A    between atoms: _145  and  _146
REMARK   60  A    between atoms: _145  and  _148
REMARK   61  A    between atoms: _148  and  _149
REMARK   62  A    between atoms: _152  and  _154
REMARK   63  A    between atoms: _154  and  _155
REMARK   64  A    between atoms: _154  and  _157
REMARK   65  A    between atoms: _157  and  _158
REMARK   66  A    between atoms: _161  and  _163
REMARK   67  A    between atoms: _163  and  _164
REMARK   68  A    between atoms: _163  and  _166
REMARK   69  A    between atoms: _166  and  _167
REMARK   70  A    between atoms: _172  and  _174
REMARK   71  A    between atoms: _174  and  _175
REMARK   72  A    between atoms: _174  and  _177
REMARK   73  A    between atoms: _177  and  _178
REMARK   74  A    between atoms: _178  and  _179
REMARK   75  A    between atoms: _179  and  _180
REMARK   76  A    between atoms: _180  and  _181
REMARK   77  A    between atoms: _185  and  _187
REMARK   78  A    between atoms: _187  and  _188
REMARK   79  A    between atoms: _187  and  _190
REMARK   80  A    between atoms: _190  and  _191
REMARK   81  A    between atoms: _191  and  _192
REMARK   82  A    between atoms: _192  and  _193
REMARK   83  A    between atoms: _202  and  _204
REMARK   84  A    between atoms: _204  and  _205
REMARK   85  A    between atoms: _204  and  _207
REMARK   86  A    between atoms: _207  and  _208
REMARK   87  A    between atoms: _211  and  _213
REMARK   88  A    between atoms: _213  and  _214
REMARK   89  A    between atoms: _213  and  _216
REMARK   90  A    between atoms: _216  and  _217
REMARK   91  A    between atoms: _222  and  _223
REMARK   92  A    between atoms: _225  and  _227
REMARK   93  A    between atoms: _227  and  _228
REMARK   94  A    between atoms: _227  and  _230
REMARK   95  A    between atoms: _230  and  _231
REMARK   96  A    between atoms: _231  and  _232
REMARK   97  A    between atoms: _232  and  _233
REMARK   98  A    between atoms: _242  and  _244
REMARK   99  A    between atoms: _244  and  _245
REMARK  100  A    between atoms: _244  and  _247
REMARK  101  A    between atoms: _247  and  _248
REMARK  102  A    between atoms: _248  and  _249
REMARK  103  A    between atoms: _252  and  _254
REMARK  104  A    between atoms: _254  and  _255
REMARK  105  A    between atoms: _254  and  _257
REMARK  106  A    between atoms: _257  and  _258
REMARK  107  A    between atoms: _261  and  _263
REMARK  108  A    between atoms: _263  and  _264
REMARK  109  A    between atoms: _263  and  _266
REMARK  110  A    between atoms: _266  and  _267
REMARK  111  A    between atoms: _267  and  _268
REMARK  112  A    between atoms: _268  and  _269
REMARK  113  A    between atoms: _278  and  _280
REMARK  114  A    between atoms: _280  and  _281
REMARK  115  A    between atoms: _280  and  _283
REMARK  116  A    between atoms: _283  and  _284
REMARK  117  A    between atoms: _287  and  _289
REMARK  118  A    between atoms: _289  and  _290
REMARK  119  A    between atoms: _289  and  _292
REMARK  120  A    between atoms: _292  and  _293
REMARK  121  A    between atoms: _296  and  _298
REMARK  122  A    between atoms: _298  and  _299
REMARK  123  A    between atoms: _298  and  _301
REMARK  124  A    between atoms: _301  and  _302
REMARK  125  A    between atoms: _307  and  _309
REMARK  126  A    between atoms: _309  and  _310
REMARK  127  A    between atoms: _309  and  _312
REMARK  128  A    between atoms: _312  and  _313
REMARK  129  A    between atoms: _313  and  _314
REMARK  130  A    between atoms: _316  and  _318
REMARK  131  A    between atoms: _318  and  _319
REMARK  132  A    between atoms: _318  and  _321
REMARK  133  A    between atoms: _321  and  _322
REMARK  134  A    between atoms: _327  and  _329
REMARK  135  A    between atoms: _329  and  _330
REMARK  136  A    between atoms: _329  and  _332
REMARK  137  A    between atoms: _335  and  _337
REMARK  138  A    between atoms: _337  and  _338
REMARK  139  A    between atoms: _337  and  _340
REMARK  140  A    between atoms: _340  and  _341
REMARK  141  A    between atoms: _344  and  _346
REMARK  142  A    between atoms: _346  and  _347
REMARK  143  A    between atoms: _349  and  _351
REMARK  144  A    between atoms: _351  and  _352
REMARK  145  A    between atoms: _351  and  _354
REMARK  146  A    between atoms: _354  and  _355
REMARK  147  A    between atoms: _358  and  _360
REMARK  148  A    between atoms: _360  and  _361
REMARK  149  A    between atoms: _360  and  _363
REMARK  150  A    between atoms: _363  and  _364
REMARK  151  A    between atoms: _367  and  _369
REMARK  152  A    between atoms: _369  and  _370
REMARK  153  A    between atoms: _369  and  _372
REMARK  154  A    between atoms: _372  and  _373
REMARK  155  A    between atoms: _376  and  _378
REMARK  156  A    between atoms: _378  and  _379
REMARK  157  A    between atoms: _378  and  _381
REMARK  158  A    between atoms: _381  and  _382
REMARK  159  A    between atoms: _387  and  _388
REMARK  160  A    between atoms: _390  and  _392
REMARK  161  A    between atoms: _392  and  _393
REMARK  162  A    between atoms: _392  and  _395
REMARK  163  A    between atoms: _395  and  _396
REMARK  164  A    between atoms: _399  and  _401
REMARK  165  A    between atoms: _401  and  _402
REMARK  166  A    between atoms: _401  and  _404
REMARK  167  A    between atoms: _407  and  _409
REMARK  168  A    between atoms: _409  and  _410
REMARK  169  A    between atoms: _409  and  _412
REMARK  170  A    between atoms: _412  and  _413
REMARK  171  A    between atoms: _416  and  _418
REMARK  172  A    between atoms: _418  and  _419
REMARK  173  A    between atoms: _418  and  _421
REMARK  174  A    between atoms: _421  and  _422
REMARK  175  A    between atoms: _427  and  _429
REMARK  176  A    between atoms: _429  and  _430
REMARK  177  A    between atoms: _429  and  _432
REMARK  178  A    between atoms: _432  and  _433
REMARK  179  A    between atoms: _436  and  _438
REMARK  180  A    between atoms: _438  and  _439
REMARK  181  A    between atoms: _438  and  _441
REMARK  182  A    between atoms: _441  and  _442
REMARK  183  A    between atoms: _442  and  _443
REMARK  184  A    between atoms: _445  and  _447
REMARK  185  A    between atoms: _447  and  _448
REMARK  186  A    between atoms: _450  and  _452
REMARK  187  A    between atoms: _452  and  _453
REMARK  188  A    between atoms: _456  and  _458
REMARK  189  A    between atoms: _458  and  _459
REMARK  190  A    between atoms: _458  and  _461
REMARK  191  A    between atoms: _461  and  _462
REMARK  192  A    between atoms: _465  and  _467
REMARK  193  A    between atoms: _467  and  _468
REMARK  194  A    between atoms: _467  and  _470
REMARK  195  A    between atoms: _470  and  _471
REMARK  196  A    between atoms: _476  and  _477
REMARK  197  A    between atoms: _479  and  _481
REMARK  198  A    between atoms: _481  and  _482
REMARK  199  A    between atoms: _481  and  _484
REMARK  200  A    between atoms: _484  and  _485
REMARK  201  A    between atoms: _488  and  _490
REMARK  202  A    between atoms: _490  and  _491
REMARK  203  A    between atoms: _490  and  _493
REMARK  204  A    between atoms: _493  and  _494
REMARK  205  A    between atoms: _497  and  _499
REMARK  206  A    between atoms: _499  and  _500
REMARK  207  A    between atoms: _499  and  _502
REMARK  208  A    between atoms: _502  and  _503
REMARK  209  A    between atoms: _506  and  _508
REMARK  210  A    between atoms: _508  and  _509
REMARK  211  A    between atoms: _508  and  _511
REMARK  212  A    between atoms: _511  and  _512
REMARK  213  A    between atoms: _517  and  _519
REMARK  214  A    between atoms: _519  and  _520
REMARK  215  A    between atoms: _519  and  _522
REMARK  216  A    between atoms: _522  and  _523
REMARK  217  A    between atoms: _523  and  _524
REMARK  218  A    between atoms: _524  and  _525
REMARK  219  A    between atoms: _534  and  _536
REMARK  220  A    between atoms: _536  and  _537
REMARK  221  A    between atoms: _536  and  _539
REMARK  222  A    between atoms: _539  and  _540
REMARK  223  A    between atoms: _543  and  _545
REMARK  224  A    between atoms: _545  and  _546
REMARK  225  A    between atoms: _545  and  _548
REMARK  226  A    between atoms: _548  and  _549
REMARK  227  A    between atoms: _552  and  _554
REMARK  228  A    between atoms: _554  and  _555
REMARK  229  A    between atoms: _554  and  _557
REMARK  230  A    between atoms: _557  and  _558
REMARK  231  A    between atoms: _563  and  _565
REMARK  232  A    between atoms: _565  and  _566
REMARK  233  A    between atoms: _565  and  _568
REMARK  234  A    between atoms: _568  and  _569
REMARK  235  A    between atoms: _572  and  _574
REMARK  236  A    between atoms: _574  and  _575
REMARK  237  A    between atoms: _578  and  _580
REMARK  238  A    between atoms: _580  and  _581
REMARK  239  A    between atoms: _580  and  _583
REMARK  240  A    between atoms: _583  and  _584
REMARK  241  A    between atoms: _584  and  _585
REMARK  242  A    between atoms: _585  and  _586
REMARK  243  A    between atoms: _586  and  _587
REMARK  244  A    between atoms: _591  and  _593
REMARK  245  A    between atoms: _593  and  _594
REMARK  246  A    between atoms: _593  and  _596
REMARK  247  A    between atoms: _596  and  _597
REMARK  248  A    between atoms: _600  and  _602
REMARK  249  A    between atoms: _602  and  _603
REMARK  250  A    between atoms: _602  and  _605
REMARK  251  A    between atoms: _605  and  _606
REMARK  252  A    between atoms: _609  and  _611
REMARK  253  A    between atoms: _611  and  _612
REMARK  254  A    between atoms: _611  and  _614
REMARK  255  A    between atoms: _614  and  _615
REMARK  256  A    between atoms: _618  and  _620
REMARK  257  A    between atoms: _620  and  _621
REMARK  258  A    between atoms: _620  and  _623
REMARK  259  A    between atoms: _623  and  _624
REMARK  260  A    between atoms: _630  and  _632
REMARK  261  A    between atoms: _632  and  _633
REMARK  262  A    between atoms: _635  and  _637
REMARK  263  A    between atoms: _637  and  _638
REMARK  264  A    between atoms: _637  and  _640
REMARK  265  A    between atoms: _640  and  _641
REMARK  266  A    between atoms: _644  and  _646
REMARK  267  A    between atoms: _646  and  _647
REMARK  268  A    between atoms: _646  and  _649
REMARK  269  A    between atoms: _649  and  _650
REMARK  270  A    between atoms: _653  and  _655
REMARK  271  A    between atoms: _655  and  _656
REMARK  272  A    between atoms: _655  and  _658
REMARK  273  A    between atoms: _658  and  _659
REMARK  274  A    between atoms: _664  and  _665
REMARK  275  A    between atoms: _667  and  _669
REMARK  276  A    between atoms: _669  and  _670
REMARK  277  A    between atoms: _669  and  _672
REMARK  278  A    between atoms: _672  and  _673
REMARK  279  A    between atoms: _673  and  _674
REMARK                            x       y       z     vdW  Elec       q    Type
REMARK                         _______ _______ _______ _____ _____    ______ ____
ROOT
ATOM      1  O   HOH     1      10.082  -7.179  -8.873  0.00  0.00    +0.000 OA
ENDROOT
TORSDOF 0
REMARK  Name = ../refined-set-2016/3gcu/3gcu_pocket.pdb
REMARK  279 active torsions:
REMARK  status: ('A' for Active; 'I' for Inactive)
REMARK    1  A    between atoms: _2  and  _3
REMARK    2  A    between atoms: _8  and  _10
REMARK    3  A    between atoms: _10  and  _11
REMARK    4  A    between atoms: _10  and  _13
REMARK    5  A    between atoms: _16  and  _18
REMARK    6  A    between atoms: _18  and  _19
REMARK    7  A    between atoms: _21  and  _23
REMARK    8  A    between atoms: _23  and  _24
REMARK    9  A    between atoms: _23  and  _26
REMARK   10  A    between atoms: _26  and  _27
REMARK   11  A    between atoms: _29  and  _31
REMARK   12  A    between atoms: _31  and  _32
REMARK   13  A    between atoms: _31  and  _34
REMARK   14  A    between atoms: _34  and  _35
REMARK   15  A    between atoms: _40  and  _41
REMARK   16  A    between atoms: _43  and  _45
REMARK   17  A    between atoms: _45  and  _46
REMARK   18  A    between atoms: _45  and  _48
REMARK   19  A    between atoms: _48  and  _49
REMARK   20  A    between atoms: _51  and  _53
REMARK   21  A    between atoms: _53  and  _54
REMARK   22  A    between atoms: _53  and  _56
REMARK   23  A    between atoms: _59  and  _61
REMARK   24  A    between atoms: _61  and  _62
REMARK   25  A    between atoms: _61  and  _64
REMARK   26  A    between atoms: _66  and  _68
REMARK   27  A    between atoms: _68  and  _69
REMARK   28  A    between atoms: _72  and  _74
REMARK   29  A    between atoms: _74  and  _75
REMARK   30  A    between atoms: _78  and  _80
REMARK   31  A    between atoms: _80  and  _81
REMARK   32  A    between atoms: _80  and  _83
REMARK   33  A    between atoms: _83  and  _84
REMARK   34  A    between atoms: _84  and  _85
REMARK   35  A    between atoms: _85  and  _86
REMARK   36  A    between atoms: _95  and  _97
REMARK   37  A    between atoms: _97  and  _98
REMARK   38  A    between atoms: _97  and  _100
REMARK   39  A    between atoms: _103  and  _105
REMARK   40  A    between atoms: _105  and  _106
REMARK   41  A    between atoms: _109  and  _111
REMARK   42  A    between atoms: _111  and  _112
REMARK   43  A    between atoms: _111  and  _114
REMARK   44  A    between atoms: _117  and  _119
REMARK   45  A    between atoms: _119  and  _120
REMARK   46  A    between atoms: _119  and  _122
REMARK   47  A    between atoms: _122  and  _123
REMARK   48  A    between atoms: _123  and  _124
REMARK   49  A    between atoms: _124  and  _125
REMARK   50  A    between atoms: _125  and  _126
REMARK   51  A    between atoms: _130  and  _132
REMARK   52  A    between atoms: _132  and  _133
REMARK   53  A    between atoms: _132  and  _135
REMARK   54  A    between atoms: _135  and  _136
REMARK   55  A    between atoms: _136  and  _137
REMARK   56  A    between atoms: _137  and  _138
REMARK   57  A    between atoms: _138  and  _139
REMARK   58  A    between atoms: _143  and  _145
REMARK   59  A    between atoms: _145  and  _146
REMARK   60  A    between atoms: _145  and  _148
REMARK   61  A    between atoms: _148  and  _149
REMARK   62  A    between atoms: _152  and  _154
REMARK   63  A    between atoms: _154  and  _155
REMARK   64  A    between atoms: _154  and  _157
REMARK   65  A    between atoms: _157  and  _158
REMARK   66  A    between atoms: _161  and  _163
REMARK   67  A    between atoms: _163  and  _164
REMARK   68  A    between atoms: _163  and  _166
REMARK   69  A    between atoms: _166  and  _167
REMARK   70  A    between atoms: _172  and  _174
REMARK   71  A    between atoms: _174  and  _175
REMARK   72  A    between atoms: _174  and  _177
REMARK   73  A    between atoms: _177  and  _178
REMARK   74  A    between atoms: _178  and  _179
REMARK   75  A    between atoms: _179  and  _180
REMARK   76  A    between atoms: _180  and  _181
REMARK   77  A    between atoms: _185  and  _187
REMARK   78  A    between atoms: _187  and  _188
REMARK   79  A    between atoms: _187  and  _190
REMARK   80  A    between atoms: _190  and  _191
REMARK   81  A    between atoms: _191  and  _192
REMARK   82  A    between atoms: _192  and  _193
REMARK   83  A    between atoms: _202  and  _204
REMARK   84  A    between atoms: _204  and  _205
REMARK   85  A    between atoms: _204  and  _207
REMARK   86  A    between atoms: _207  and  _208
REMARK   87  A    between atoms: _211  and  _213
REMARK   88  A    between atoms: _213  and  _214
REMARK   89  A    between atoms: _213  and  _216
REMARK   90  A    between atoms: _216  and  _217
REMARK   91  A    between atoms: _222  and  _223
REMARK   92  A    between atoms: _225  and  _227
REMARK   93  A    between atoms: _227  and  _228
REMARK   94  A    between atoms: _227  and  _230
REMARK   95  A    between atoms: _230  and  _231
REMARK   96  A    between atoms: _231  and  _232
REMARK   97  A    between atoms: _232  and  _233
REMARK   98  A    between atoms: _242  and  _244
REMARK   99  A    between atoms: _244  and  _245
REMARK  100  A    between atoms: _244  and  _247
REMARK  101  A    between atoms: _247  and  _248
REMARK  102  A    between atoms: _248  and  _249
REMARK  103  A    between atoms: _252  and  _254
REMARK  104  A    between atoms: _254  and  _255
REMARK  105  A    between atoms: _254  and  _257
REMARK  106  A    between atoms: _257  and  _258
REMARK  107  A    between atoms: _261  and  _263
REMARK  108  A    between atoms: _263  and  _264
REMARK  109  A    between atoms: _263  and  _266
REMARK  110  A    between atoms: _266  and  _267
REMARK  111  A    between atoms: _267  and  _268
REMARK  112  A    between atoms: _268  and  _269
REMARK  113  A    between atoms: _278  and  _280
REMARK  114  A    between atoms: _280  and  _281
REMARK  115  A    between atoms: _280  and  _283
REMARK  116  A    between atoms: _283  and  _284
REMARK  117  A    between atoms: _287  and  _289
REMARK  118  A    between atoms: _289  and  _290
REMARK  119  A    between atoms: _289  and  _292
REMARK  120  A    between atoms: _292  and  _293
REMARK  121  A    between atoms: _296  and  _298
REMARK  122  A    between atoms: _298  and  _299
REMARK  123  A    between atoms: _298  and  _301
REMARK  124  A    between atoms: _301  and  _302
REMARK  125  A    between atoms: _307  and  _309
REMARK  126  A    between atoms: _309  and  _310
REMARK  127  A    between atoms: _309  and  _312
REMARK  128  A    between atoms: _312  and  _313
REMARK  129  A    between atoms: _313  and  _314
REMARK  130  A    between atoms: _316  and  _318
REMARK  131  A    between atoms: _318  and  _319
REMARK  132  A    between atoms: _318  and  _321
REMARK  133  A    between atoms: _321  and  _322
REMARK  134  A    between atoms: _327  and  _329
REMARK  135  A    between atoms: _329  and  _330
REMARK  136  A    between atoms: _329  and  _332
REMARK  137  A    between atoms: _335  and  _337
REMARK  138  A    between atoms: _337  and  _338
REMARK  139  A    between atoms: _337  and  _340
REMARK  140  A    between atoms: _340  and  _341
REMARK  141  A    between atoms: _344  and  _346
REMARK  142  A    between atoms: _346  and  _347
REMARK  143  A    between atoms: _349  and  _351
REMARK  144  A    between atoms: _351  and  _352
REMARK  145  A    between atoms: _351  and  _354
REMARK  146  A    between atoms: _354  and  _355
REMARK  147  A    between atoms: _358  and  _360
REMARK  148  A    between atoms: _360  and  _361
REMARK  149  A    between atoms: _360  and  _363
REMARK  150  A    between atoms: _363  and  _364
REMARK  151  A    between atoms: _367  and  _369
REMARK  152  A    between atoms: _369  and  _370
REMARK  153  A    between atoms: _369  and  _372
REMARK  154  A    between atoms: _372  and  _373
REMARK  155  A    between atoms: _376  and  _378
REMARK  156  A    between atoms: _378  and  _379
REMARK  157  A    between atoms: _378  and  _381
REMARK  158  A    between atoms: _381  and  _382
REMARK  159  A    between atoms: _387  and  _388
REMARK  160  A    between atoms: _390  and  _392
REMARK  161  A    between atoms: _392  and  _393
REMARK  162  A    between atoms: _392  and  _395
REMARK  163  A    between atoms: _395  and  _396
REMARK  164  A    between atoms: _399  and  _401
REMARK  165  A    between atoms: _401  and  _402
REMARK  166  A    between atoms: _401  and  _404
REMARK  167  A    between atoms: _407  and  _409
REMARK  168  A    between atoms: _409  and  _410
REMARK  169  A    between atoms: _409  and  _412
REMARK  170  A    between atoms: _412  and  _413
REMARK  171  A    between atoms: _416  and  _418
REMARK  172  A    between atoms: _418  and  _419
REMARK  173  A    between atoms: _418  and  _421
REMARK  174  A    between atoms: _421  and  _422
REMARK  175  A    between atoms: _427  and  _429
REMARK  176  A    between atoms: _429  and  _430
REMARK  177  A    between atoms: _429  and  _432
REMARK  178  A    between atoms: _432  and  _433
REMARK  179  A    between atoms: _436  and  _438
REMARK  180  A    between atoms: _438  and  _439
REMARK  181  A    between atoms: _438  and  _441
REMARK  182  A    between atoms: _441  and  _442
REMARK  183  A    between atoms: _442  and  _443
REMARK  184  A    between atoms: _445  and  _447
REMARK  185  A    between atoms: _447  and  _448
REMARK  186  A    between atoms: _450  and  _452
REMARK  187  A    between atoms: _452  and  _453
REMARK  188  A    between atoms: _456  and  _458
REMARK  189  A    between atoms: _458  and  _459
REMARK  190  A    between atoms: _458  and  _461
REMARK  191  A    between atoms: _461  and  _462
REMARK  192  A    between atoms: _465  and  _467
REMARK  193  A    between atoms: _467  and  _468
REMARK  194  A    between atoms: _467  and  _470
REMARK  195  A    between atoms: _470  and  _471
REMARK  196  A    between atoms: _476  and  _477
REMARK  197  A    between atoms: _479  and  _481
REMARK  198  A    between atoms: _481  and  _482
REMARK  199  A    between atoms: _481  and  _484
REMARK  200  A    between atoms: _484  and  _485
REMARK  201  A    between atoms: _488  and  _490
REMARK  202  A    between atoms: _490  and  _491
REMARK  203  A    between atoms: _490  and  _493
REMARK  204  A    between atoms: _493  and  _494
REMARK  205  A    between atoms: _497  and  _499
REMARK  206  A    between atoms: _499  and  _500
REMARK  207  A    between atoms: _499  and  _502
REMARK  208  A    between atoms: _502  and  _503
REMARK  209  A    between atoms: _506  and  _508
REMARK  210  A    between atoms: _508  and  _509
REMARK  211  A    between atoms: _508  and  _511
REMARK  212  A    between atoms: _511  and  _512
REMARK  213  A    between atoms: _517  and  _519
REMARK  214  A    between atoms: _519  and  _520
REMARK  215  A    between atoms: _519  and  _522
REMARK  216  A    between atoms: _522  and  _523
REMARK  217  A    between atoms: _523  and  _524
REMARK  218  A    between atoms: _524  and  _525
REMARK  219  A    between atoms: _534  and  _536
REMARK  220  A    between atoms: _536  and  _537
REMARK  221  A    between atoms: _536  and  _539
REMARK  222  A    between atoms: _539  and  _540
REMARK  223  A    between atoms: _543  and  _545
REMARK  224  A    between atoms: _545  and  _546
REMARK  225  A    between atoms: _545  and  _548
REMARK  226  A    between atoms: _548  and  _549
REMARK  227  A    between atoms: _552  and  _554
REMARK  228  A    between atoms: _554  and  _555
REMARK  229  A    between atoms: _554  and  _557
REMARK  230  A    between atoms: _557  and  _558
REMARK  231  A    between atoms: _563  and  _565
REMARK  232  A    between atoms: _565  and  _566
REMARK  233  A    between atoms: _565  and  _568
REMARK  234  A    between atoms: _568  and  _569
REMARK  235  A    between atoms: _572  and  _574
REMARK  236  A    between atoms: _574  and  _575
REMARK  237  A    between atoms: _578  and  _580
REMARK  238  A    between atoms: _580  and  _581
REMARK  239  A    between atoms: _580  and  _583
REMARK  240  A    between atoms: _583  and  _584
REMARK  241  A    between atoms: _584  and  _585
REMARK  242  A    between atoms: _585  and  _586
REMARK  243  A    between atoms: _586  and  _587
REMARK  244  A    between atoms: _591  and  _593
REMARK  245  A    between atoms: _593  and  _594
REMARK  246  A    between atoms: _593  and  _596
REMARK  247  A    between atoms: _596  and  _597
REMARK  248  A    between atoms: _600  and  _602
REMARK  249  A    between atoms: _602  and  _603
REMARK  250  A    between atoms: _602  and  _605
REMARK  251  A    between atoms: _605  and  _606
REMARK  252  A    between atoms: _609  and  _611
REMARK  253  A    between atoms: _611  and  _612
REMARK  254  A    between atoms: _611  and  _614
REMARK  255  A    between atoms: _614  and  _615
REMARK  256  A    between atoms: _618  and  _620
REMARK  257  A    between atoms: _620  and  _621
REMARK  258  A    between atoms: _620  and  _623
REMARK  259  A    between atoms: _623  and  _624
REMARK  260  A    between atoms: _630  and  _632
REMARK  261  A    between atoms: _632  and  _633
REMARK  262  A    between atoms: _635  and  _637
REMARK  263  A    between atoms: _637  and  _638
REMARK  264  A    between atoms: _637  and  _640
REMARK  265  A    between atoms: _640  and  _641
REMARK  266  A    between atoms: _644  and  _646
REMARK  267  A    between atoms: _646  and  _647
REMARK  268  A    between atoms: _646  and  _649
REMARK  269  A    between atoms: _649  and  _650
REMARK  270  A    between atoms: _653  and  _655
REMARK  271  A    between atoms: _655  and  _656
REMARK  272  A    between atoms: _655  and  _658
REMARK  273  A    between atoms: _658  and  _659
REMARK  274  A    between atoms: _664  and  _665
REMARK  275  A    between atoms: _667  and  _669
REMARK  276  A    between atoms: _669  and  _670
REMARK  277  A    between atoms: _669  and  _672
REMARK  278  A    between atoms: _672  and  _673
REMARK  279  A    between atoms: _673  and  _674
REMARK                            x       y       z     vdW  Elec       q    Type
REMARK                         _______ _______ _______ _____ _____    ______ ____
ROOT
ATOM      1  O   HOH     1      11.767  -7.567  -6.910  0.00  0.00    +0.000 OA
ENDROOT
TORSDOF 0
REMARK  Name = ../refined-set-2016/3gcu/3gcu_pocket.pdb
REMARK  279 active torsions:
REMARK  status: ('A' for Active; 'I' for Inactive)
REMARK    1  A    between atoms: _2  and  _3
REMARK    2  A    between atoms: _8  and  _10
REMARK    3  A    between atoms: _10  and  _11
REMARK    4  A    between atoms: _10  and  _13
REMARK    5  A    between atoms: _16  and  _18
REMARK    6  A    between atoms: _18  and  _19
REMARK    7  A    between atoms: _21  and  _23
REMARK    8  A    between atoms: _23  and  _24
REMARK    9  A    between atoms: _23  and  _26
REMARK   10  A    between atoms: _26  and  _27
REMARK   11  A    between atoms: _29  and  _31
REMARK   12  A    between atoms: _31  and  _32
REMARK   13  A    between atoms: _31  and  _34
REMARK   14  A    between atoms: _34  and  _35
REMARK   15  A    between atoms: _40  and  _41
REMARK   16  A    between atoms: _43  and  _45
REMARK   17  A    between atoms: _45  and  _46
REMARK   18  A    between atoms: _45  and  _48
REMARK   19  A    between atoms: _48  and  _49
REMARK   20  A    between atoms: _51  and  _53
REMARK   21  A    between atoms: _53  and  _54
REMARK   22  A    between atoms: _53  and  _56
REMARK   23  A    between atoms: _59  and  _61
REMARK   24  A    between atoms: _61  and  _62
REMARK   25  A    between atoms: _61  and  _64
REMARK   26  A    between atoms: _66  and  _68
REMARK   27  A    between atoms: _68  and  _69
REMARK   28  A    between atoms: _72  and  _74
REMARK   29  A    between atoms: _74  and  _75
REMARK   30  A    between atoms: _78  and  _80
REMARK   31  A    between atoms: _80  and  _81
REMARK   32  A    between atoms: _80  and  _83
REMARK   33  A    between atoms: _83  and  _84
REMARK   34  A    between atoms: _84  and  _85
REMARK   35  A    between atoms: _85  and  _86
REMARK   36  A    between atoms: _95  and  _97
REMARK   37  A    between atoms: _97  and  _98
REMARK   38  A    between atoms: _97  and  _100
REMARK   39  A    between atoms: _103  and  _105
REMARK   40  A    between atoms: _105  and  _106
REMARK   41  A    between atoms: _109  and  _111
REMARK   42  A    between atoms: _111  and  _112
REMARK   43  A    between atoms: _111  and  _114
REMARK   44  A    between atoms: _117  and  _119
REMARK   45  A    between atoms: _119  and  _120
REMARK   46  A    between atoms: _119  and  _122
REMARK   47  A    between atoms: _122  and  _123
REMARK   48  A    between atoms: _123  and  _124
REMARK   49  A    between atoms: _124  and  _125
REMARK   50  A    between atoms: _125  and  _126
REMARK   51  A    between atoms: _130  and  _132
REMARK   52  A    between atoms: _132  and  _133
REMARK   53  A    between atoms: _132  and  _135
REMARK   54  A    between atoms: _135  and  _136
REMARK   55  A    between atoms: _136  and  _137
REMARK   56  A    between atoms: _137  and  _138
REMARK   57  A    between atoms: _138  and  _139
REMARK   58  A    between atoms: _143  and  _145
REMARK   59  A    between atoms: _145  and  _146
REMARK   60  A    between atoms: _145  and  _148
REMARK   61  A    between atoms: _148  and  _149
REMARK   62  A    between atoms: _152  and  _154
REMARK   63  A    between atoms: _154  and  _155
REMARK   64  A    between atoms: _154  and  _157
REMARK   65  A    between atoms: _157  and  _158
REMARK   66  A    between atoms: _161  and  _163
REMARK   67  A    between atoms: _163  and  _164
REMARK   68  A    between atoms: _163  and  _166
REMARK   69  A    between atoms: _166  and  _167
REMARK   70  A    between atoms: _172  and  _174
REMARK   71  A    between atoms: _174  and  _175
REMARK   72  A    between atoms: _174  and  _177
REMARK   73  A    between atoms: _177  and  _178
REMARK   74  A    between atoms: _178  and  _179
REMARK   75  A    between atoms: _179  and  _180
REMARK   76  A    between atoms: _180  and  _181
REMARK   77  A    between atoms: _185  and  _187
REMARK   78  A    between atoms: _187  and  _188
REMARK   79  A    between atoms: _187  and  _190
REMARK   80  A    between atoms: _190  and  _191
REMARK   81  A    between atoms: _191  and  _192
REMARK   82  A    between atoms: _192  and  _193
REMARK   83  A    between atoms: _202  and  _204
REMARK   84  A    between atoms: _204  and  _205
REMARK   85  A    between atoms: _204  and  _207
REMARK   86  A    between atoms: _207  and  _208
REMARK   87  A    between atoms: _211  and  _213
REMARK   88  A    between atoms: _213  and  _214
REMARK   89  A    between atoms: _213  and  _216
REMARK   90  A    between atoms: _216  and  _217
REMARK   91  A    between atoms: _222  and  _223
REMARK   92  A    between atoms: _225  and  _227
REMARK   93  A    between atoms: _227  and  _228
REMARK   94  A    between atoms: _227  and  _230
REMARK   95  A    between atoms: _230  and  _231
REMARK   96  A    between atoms: _231  and  _232
REMARK   97  A    between atoms: _232  and  _233
REMARK   98  A    between atoms: _242  and  _244
REMARK   99  A    between atoms: _244  and  _245
REMARK  100  A    between atoms: _244  and  _247
REMARK  101  A    between atoms: _247  and  _248
REMARK  102  A    between atoms: _248  and  _249
REMARK  103  A    between atoms: _252  and  _254
REMARK  104  A    between atoms: _254  and  _255
REMARK  105  A    between atoms: _254  and  _257
REMARK  106  A    between atoms: _257  and  _258
REMARK  107  A    between atoms: _261  and  _263
REMARK  108  A    between atoms: _263  and  _264
REMARK  109  A    between atoms: _263  and  _266
REMARK  110  A    between atoms: _266  and  _267
REMARK  111  A    between atoms: _267  and  _268
REMARK  112  A    between atoms: _268  and  _269
REMARK  113  A    between atoms: _278  and  _280
REMARK  114  A    between atoms: _280  and  _281
REMARK  115  A    between atoms: _280  and  _283
REMARK  116  A    between atoms: _283  and  _284
REMARK  117  A    between atoms: _287  and  _289
REMARK  118  A    between atoms: _289  and  _290
REMARK  119  A    between atoms: _289  and  _292
REMARK  120  A    between atoms: _292  and  _293
REMARK  121  A    between atoms: _296  and  _298
REMARK  122  A    between atoms: _298  and  _299
REMARK  123  A    between atoms: _298  and  _301
REMARK  124  A    between atoms: _301  and  _302
REMARK  125  A    between atoms: _307  and  _309
REMARK  126  A    between atoms: _309  and  _310
REMARK  127  A    between atoms: _309  and  _312
REMARK  128  A    between atoms: _312  and  _313
REMARK  129  A    between atoms: _313  and  _314
REMARK  130  A    between atoms: _316  and  _318
REMARK  131  A    between atoms: _318  and  _319
REMARK  132  A    between atoms: _318  and  _321
REMARK  133  A    between atoms: _321  and  _322
REMARK  134  A    between atoms: _327  and  _329
REMARK  135  A    between atoms: _329  and  _330
REMARK  136  A    between atoms: _329  and  _332
REMARK  137  A    between atoms: _335  and  _337
REMARK  138  A    between atoms: _337  and  _338
REMARK  139  A    between atoms: _337  and  _340
REMARK  140  A    between atoms: _340  and  _341
REMARK  141  A    between atoms: _344  and  _346
REMARK  142  A    between atoms: _346  and  _347
REMARK  143  A    between atoms: _349  and  _351
REMARK  144  A    between atoms: _351  and  _352
REMARK  145  A    between atoms: _351  and  _354
REMARK  146  A    between atoms: _354  and  _355
REMARK  147  A    between atoms: _358  and  _360
REMARK  148  A    between atoms: _360  and  _361
REMARK  149  A    between atoms: _360  and  _363
REMARK  150  A    between atoms: _363  and  _364
REMARK  151  A    between atoms: _367  and  _369
REMARK  152  A    between atoms: _369  and  _370
REMARK  153  A    between atoms: _369  and  _372
REMARK  154  A    between atoms: _372  and  _373
REMARK  155  A    between atoms: _376  and  _378
REMARK  156  A    between atoms: _378  and  _379
REMARK  157  A    between atoms: _378  and  _381
REMARK  158  A    between atoms: _381  and  _382
REMARK  159  A    between atoms: _387  and  _388
REMARK  160  A    between atoms: _390  and  _392
REMARK  161  A    between atoms: _392  and  _393
REMARK  162  A    between atoms: _392  and  _395
REMARK  163  A    between atoms: _395  and  _396
REMARK  164  A    between atoms: _399  and  _401
REMARK  165  A    between atoms: _401  and  _402
REMARK  166  A    between atoms: _401  and  _404
REMARK  167  A    between atoms: _407  and  _409
REMARK  168  A    between atoms: _409  and  _410
REMARK  169  A    between atoms: _409  and  _412
REMARK  170  A    between atoms: _412  and  _413
REMARK  171  A    between atoms: _416  and  _418
REMARK  172  A    between atoms: _418  and  _419
REMARK  173  A    between atoms: _418  and  _421
REMARK  174  A    between atoms: _421  and  _422
REMARK  175  A    between atoms: _427  and  _429
REMARK  176  A    between atoms: _429  and  _430
REMARK  177  A    between atoms: _429  and  _432
REMARK  178  A    between atoms: _432  and  _433
REMARK  179  A    between atoms: _436  and  _438
REMARK  180  A    between atoms: _438  and  _439
REMARK  181  A    between atoms: _438  and  _441
REMARK  182  A    between atoms: _441  and  _442
REMARK  183  A    between atoms: _442  and  _443
REMARK  184  A    between atoms: _445  and  _447
REMARK  185  A    between atoms: _447  and  _448
REMARK  186  A    between atoms: _450  and  _452
REMARK  187  A    between atoms: _452  and  _453
REMARK  188  A    between atoms: _456  and  _458
REMARK  189  A    between atoms: _458  and  _459
REMARK  190  A    between atoms: _458  and  _461
REMARK  191  A    between atoms: _461  and  _462
REMARK  192  A    between atoms: _465  and  _467
REMARK  193  A    between atoms: _467  and  _468
REMARK  194  A    between atoms: _467  and  _470
REMARK  195  A    between atoms: _470  and  _471
REMARK  196  A    between atoms: _476  and  _477
REMARK  197  A    between atoms: _479  and  _481
REMARK  198  A    between atoms: _481  and  _482
REMARK  199  A    between atoms: _481  and  _484
REMARK  200  A    between atoms: _484  and  _485
REMARK  201  A    between atoms: _488  and  _490
REMARK  202  A    between atoms: _490  and  _491
REMARK  203  A    between atoms: _490  and  _493
REMARK  204  A    between atoms: _493  and  _494
REMARK  205  A    between atoms: _497  and  _499
REMARK  206  A    between atoms: _499  and  _500
REMARK  207  A    between atoms: _499  and  _502
REMARK  208  A    between atoms: _502  and  _503
REMARK  209  A    between atoms: _506  and  _508
REMARK  210  A    between atoms: _508  and  _509
REMARK  211  A    between atoms: _508  and  _511
REMARK  212  A    between atoms: _511  and  _512
REMARK  213  A    between atoms: _517  and  _519
REMARK  214  A    between atoms: _519  and  _520
REMARK  215  A    between atoms: _519  and  _522
REMARK  216  A    between atoms: _522  and  _523
REMARK  217  A    between atoms: _523  and  _524
REMARK  218  A    between atoms: _524  and  _525
REMARK  219  A    between atoms: _534  and  _536
REMARK  220  A    between atoms: _536  and  _537
REMARK  221  A    between atoms: _536  and  _539
REMARK  222  A    between atoms: _539  and  _540
REMARK  223  A    between atoms: _543  and  _545
REMARK  224  A    between atoms: _545  and  _546
REMARK  225  A    between atoms: _545  and  _548
REMARK  226  A    between atoms: _548  and  _549
REMARK  227  A    between atoms: _552  and  _554
REMARK  228  A    between atoms: _554  and  _555
REMARK  229  A    between atoms: _554  and  _557
REMARK  230  A    between atoms: _557  and  _558
REMARK  231  A    between atoms: _563  and  _565
REMARK  232  A    between atoms: _565  and  _566
REMARK  233  A    between atoms: _565  and  _568
REMARK  234  A    between atoms: _568  and  _569
REMARK  235  A    between atoms: _572  and  _574
REMARK  236  A    between atoms: _574  and  _575
REMARK  237  A    between atoms: _578  and  _580
REMARK  238  A    between atoms: _580  and  _581
REMARK  239  A    between atoms: _580  and  _583
REMARK  240  A    between atoms: _583  and  _584
REMARK  241  A    between atoms: _584  and  _585
REMARK  242  A    between atoms: _585  and  _586
REMARK  243  A    between atoms: _586  and  _587
REMARK  244  A    between atoms: _591  and  _593
REMARK  245  A    between atoms: _593  and  _594
REMARK  246  A    between atoms: _593  and  _596
REMARK  247  A    between atoms: _596  and  _597
REMARK  248  A    between atoms: _600  and  _602
REMARK  249  A    between atoms: _602  and  _603
REMARK  250  A    between atoms: _602  and  _605
REMARK  251  A    between atoms: _605  and  _606
REMARK  252  A    between atoms: _609  and  _611
REMARK  253  A    between atoms: _611  and  _612
REMARK  254  A    between atoms: _611  and  _614
REMARK  255  A    between atoms: _614  and  _615
REMARK  256  A    between atoms: _618  and  _620
REMARK  257  A    between atoms: _620  and  _621
REMARK  258  A    between atoms: _620  and  _623
REMARK  259  A    between atoms: _623  and  _624
REMARK  260  A    between atoms: _630  and  _632
REMARK  261  A    between atoms: _632  and  _633
REMARK  262  A    between atoms: _635  and  _637
REMARK  263  A    between atoms: _637  and  _638
REMARK  264  A    between atoms: _637  and  _640
REMARK  265  A    between atoms: _640  and  _641
REMARK  266  A    between atoms: _644  and  _646
REMARK  267  A    between atoms: _646  and  _647
REMARK  268  A    between atoms: _646  and  _649
REMARK  269  A    between atoms: _649  and  _650
REMARK  270  A    between atoms: _653  and  _655
REMARK  271  A    between atoms: _655  and  _656
REMARK  272  A    between atoms: _655  and  _658
REMARK  273  A    between atoms: _658  and  _659
REMARK  274  A    between atoms: _664  and  _665
REMARK  275  A    between atoms: _667  and  _669
REMARK  276  A    between atoms: _669  and  _670
REMARK  277  A    between atoms: _669  and  _672
REMARK  278  A    between atoms: _672  and  _673
REMARK  279  A    between atoms: _673  and  _674
REMARK                            x       y       z     vdW  Elec       q    Type
REMARK                         _______ _______ _______ _____ _____    ______ ____
ROOT
ATOM      1  O   HOH     1      18.162   5.971   1.263  0.00  0.00    +0.000 OA
ENDROOT
TORSDOF 0
REMARK  Name = ../refined-set-2016/3gcu/3gcu_pocket.pdb
REMARK  279 active torsions:
REMARK  status: ('A' for Active; 'I' for Inactive)
REMARK    1  A    between atoms: _2  and  _3
REMARK    2  A    between atoms: _8  and  _10
REMARK    3  A    between atoms: _10  and  _11
REMARK    4  A    between atoms: _10  and  _13
REMARK    5  A    between atoms: _16  and  _18
REMARK    6  A    between atoms: _18  and  _19
REMARK    7  A    between atoms: _21  and  _23
REMARK    8  A    between atoms: _23  and  _24
REMARK    9  A    between atoms: _23  and  _26
REMARK   10  A    between atoms: _26  and  _27
REMARK   11  A    between atoms: _29  and  _31
REMARK   12  A    between atoms: _31  and  _32
REMARK   13  A    between atoms: _31  and  _34
REMARK   14  A    between atoms: _34  and  _35
REMARK   15  A    between atoms: _40  and  _41
REMARK   16  A    between atoms: _43  and  _45
REMARK   17  A    between atoms: _45  and  _46
REMARK   18  A    between atoms: _45  and  _48
REMARK   19  A    between atoms: _48  and  _49
REMARK   20  A    between atoms: _51  and  _53
REMARK   21  A    between atoms: _53  and  _54
REMARK   22  A    between atoms: _53  and  _56
REMARK   23  A    between atoms: _59  and  _61
REMARK   24  A    between atoms: _61  and  _62
REMARK   25  A    between atoms: _61  and  _64
REMARK   26  A    between atoms: _66  and  _68
REMARK   27  A    between atoms: _68  and  _69
REMARK   28  A    between atoms: _72  and  _74
REMARK   29  A    between atoms: _74  and  _75
REMARK   30  A    between atoms: _78  and  _80
REMARK   31  A    between atoms: _80  and  _81
REMARK   32  A    between atoms: _80  and  _83
REMARK   33  A    between atoms: _83  and  _84
REMARK   34  A    between atoms: _84  and  _85
REMARK   35  A    between atoms: _85  and  _86
REMARK   36  A    between atoms: _95  and  _97
REMARK   37  A    between atoms: _97  and  _98
REMARK   38  A    between atoms: _97  and  _100
REMARK   39  A    between atoms: _103  and  _105
REMARK   40  A    between atoms: _105  and  _106
REMARK   41  A    between atoms: _109  and  _111
REMARK   42  A    between atoms: _111  and  _112
REMARK   43  A    between atoms: _111  and  _114
REMARK   44  A    between atoms: _117  and  _119
REMARK   45  A    between atoms: _119  and  _120
REMARK   46  A    between atoms: _119  and  _122
REMARK   47  A    between atoms: _122  and  _123
REMARK   48  A    between atoms: _123  and  _124
REMARK   49  A    between atoms: _124  and  _125
REMARK   50  A    between atoms: _125  and  _126
REMARK   51  A    between atoms: _130  and  _132
REMARK   52  A    between atoms: _132  and  _133
REMARK   53  A    between atoms: _132  and  _135
REMARK   54  A    between atoms: _135  and  _136
REMARK   55  A    between atoms: _136  and  _137
REMARK   56  A    between atoms: _137  and  _138
REMARK   57  A    between atoms: _138  and  _139
REMARK   58  A    between atoms: _143  and  _145
REMARK   59  A    between atoms: _145  and  _146
REMARK   60  A    between atoms: _145  and  _148
REMARK   61  A    between atoms: _148  and  _149
REMARK   62  A    between atoms: _152  and  _154
REMARK   63  A    between atoms: _154  and  _155
REMARK   64  A    between atoms: _154  and  _157
REMARK   65  A    between atoms: _157  and  _158
REMARK   66  A    between atoms: _161  and  _163
REMARK   67  A    between atoms: _163  and  _164
REMARK   68  A    between atoms: _163  and  _166
REMARK   69  A    between atoms: _166  and  _167
REMARK   70  A    between atoms: _172  and  _174
REMARK   71  A    between atoms: _174  and  _175
REMARK   72  A    between atoms: _174  and  _177
REMARK   73  A    between atoms: _177  and  _178
REMARK   74  A    between atoms: _178  and  _179
REMARK   75  A    between atoms: _179  and  _180
REMARK   76  A    between atoms: _180  and  _181
REMARK   77  A    between atoms: _185  and  _187
REMARK   78  A    between atoms: _187  and  _188
REMARK   79  A    between atoms: _187  and  _190
REMARK   80  A    between atoms: _190  and  _191
REMARK   81  A    between atoms: _191  and  _192
REMARK   82  A    between atoms: _192  and  _193
REMARK   83  A    between atoms: _202  and  _204
REMARK   84  A    between atoms: _204  and  _205
REMARK   85  A    between atoms: _204  and  _207
REMARK   86  A    between atoms: _207  and  _208
REMARK   87  A    between atoms: _211  and  _213
REMARK   88  A    between atoms: _213  and  _214
REMARK   89  A    between atoms: _213  and  _216
REMARK   90  A    between atoms: _216  and  _217
REMARK   91  A    between atoms: _222  and  _223
REMARK   92  A    between atoms: _225  and  _227
REMARK   93  A    between atoms: _227  and  _228
REMARK   94  A    between atoms: _227  and  _230
REMARK   95  A    between atoms: _230  and  _231
REMARK   96  A    between atoms: _231  and  _232
REMARK   97  A    between atoms: _232  and  _233
REMARK   98  A    between atoms: _242  and  _244
REMARK   99  A    between atoms: _244  and  _245
REMARK  100  A    between atoms: _244  and  _247
REMARK  101  A    between atoms: _247  and  _248
REMARK  102  A    between atoms: _248  and  _249
REMARK  103  A    between atoms: _252  and  _254
REMARK  104  A    between atoms: _254  and  _255
REMARK  105  A    between atoms: _254  and  _257
REMARK  106  A    between atoms: _257  and  _258
REMARK  107  A    between atoms: _261  and  _263
REMARK  108  A    between atoms: _263  and  _264
REMARK  109  A    between atoms: _263  and  _266
REMARK  110  A    between atoms: _266  and  _267
REMARK  111  A    between atoms: _267  and  _268
REMARK  112  A    between atoms: _268  and  _269
REMARK  113  A    between atoms: _278  and  _280
REMARK  114  A    between atoms: _280  and  _281
REMARK  115  A    between atoms: _280  and  _283
REMARK  116  A    between atoms: _283  and  _284
REMARK  117  A    between atoms: _287  and  _289
REMARK  118  A    between atoms: _289  and  _290
REMARK  119  A    between atoms: _289  and  _292
REMARK  120  A    between atoms: _292  and  _293
REMARK  121  A    between atoms: _296  and  _298
REMARK  122  A    between atoms: _298  and  _299
REMARK  123  A    between atoms: _298  and  _301
REMARK  124  A    between atoms: _301  and  _302
REMARK  125  A    between atoms: _307  and  _309
REMARK  126  A    between atoms: _309  and  _310
REMARK  127  A    between atoms: _309  and  _312
REMARK  128  A    between atoms: _312  and  _313
REMARK  129  A    between atoms: _313  and  _314
REMARK  130  A    between atoms: _316  and  _318
REMARK  131  A    between atoms: _318  and  _319
REMARK  132  A    between atoms: _318  and  _321
REMARK  133  A    between atoms: _321  and  _322
REMARK  134  A    between atoms: _327  and  _329
REMARK  135  A    between atoms: _329  and  _330
REMARK  136  A    between atoms: _329  and  _332
REMARK  137  A    between atoms: _335  and  _337
REMARK  138  A    between atoms: _337  and  _338
REMARK  139  A    between atoms: _337  and  _340
REMARK  140  A    between atoms: _340  and  _341
REMARK  141  A    between atoms: _344  and  _346
REMARK  142  A    between atoms: _346  and  _347
REMARK  143  A    between atoms: _349  and  _351
REMARK  144  A    between atoms: _351  and  _352
REMARK  145  A    between atoms: _351  and  _354
REMARK  146  A    between atoms: _354  and  _355
REMARK  147  A    between atoms: _358  and  _360
REMARK  148  A    between atoms: _360  and  _361
REMARK  149  A    between atoms: _360  and  _363
REMARK  150  A    between atoms: _363  and  _364
REMARK  151  A    between atoms: _367  and  _369
REMARK  152  A    between atoms: _369  and  _370
REMARK  153  A    between atoms: _369  and  _372
REMARK  154  A    between atoms: _372  and  _373
REMARK  155  A    between atoms: _376  and  _378
REMARK  156  A    between atoms: _378  and  _379
REMARK  157  A    between atoms: _378  and  _381
REMARK  158  A    between atoms: _381  and  _382
REMARK  159  A    between atoms: _387  and  _388
REMARK  160  A    between atoms: _390  and  _392
REMARK  161  A    between atoms: _392  and  _393
REMARK  162  A    between atoms: _392  and  _395
REMARK  163  A    between atoms: _395  and  _396
REMARK  164  A    between atoms: _399  and  _401
REMARK  165  A    between atoms: _401  and  _402
REMARK  166  A    between atoms: _401  and  _404
REMARK  167  A    between atoms: _407  and  _409
REMARK  168  A    between atoms: _409  and  _410
REMARK  169  A    between atoms: _409  and  _412
REMARK  170  A    between atoms: _412  and  _413
REMARK  171  A    between atoms: _416  and  _418
REMARK  172  A    between atoms: _418  and  _419
REMARK  173  A    between atoms: _418  and  _421
REMARK  174  A    between atoms: _421  and  _422
REMARK  175  A    between atoms: _427  and  _429
REMARK  176  A    between atoms: _429  and  _430
REMARK  177  A    between atoms: _429  and  _432
REMARK  178  A    between atoms: _432  and  _433
REMARK  179  A    between atoms: _436  and  _438
REMARK  180  A    between atoms: _438  and  _439
REMARK  181  A    between atoms: _438  and  _441
REMARK  182  A    between atoms: _441  and  _442
REMARK  183  A    between atoms: _442  and  _443
REMARK  184  A    between atoms: _445  and  _447
REMARK  185  A    between atoms: _447  and  _448
REMARK  186  A    between atoms: _450  and  _452
REMARK  187  A    between atoms: _452  and  _453
REMARK  188  A    between atoms: _456  and  _458
REMARK  189  A    between atoms: _458  and  _459
REMARK  190  A    between atoms: _458  and  _461
REMARK  191  A    between atoms: _461  and  _462
REMARK  192  A    between atoms: _465  and  _467
REMARK  193  A    between atoms: _467  and  _468
REMARK  194  A    between atoms: _467  and  _470
REMARK  195  A    between atoms: _470  and  _471
REMARK  196  A    between atoms: _476  and  _477
REMARK  197  A    between atoms: _479  and  _481
REMARK  198  A    between atoms: _481  and  _482
REMARK  199  A    between atoms: _481  and  _484
REMARK  200  A    between atoms: _484  and  _485
REMARK  201  A    between atoms: _488  and  _490
REMARK  202  A    between atoms: _490  and  _491
REMARK  203  A    between atoms: _490  and  _493
REMARK  204  A    between atoms: _493  and  _494
REMARK  205  A    between atoms: _497  and  _499
REMARK  206  A    between atoms: _499  and  _500
REMARK  207  A    between atoms: _499  and  _502
REMARK  208  A    between atoms: _502  and  _503
REMARK  209  A    between atoms: _506  and  _508
REMARK  210  A    between atoms: _508  and  _509
REMARK  211  A    between atoms: _508  and  _511
REMARK  212  A    between atoms: _511  and  _512
REMARK  213  A    between atoms: _517  and  _519
REMARK  214  A    between atoms: _519  and  _520
REMARK  215  A    between atoms: _519  and  _522
REMARK  216  A    between atoms: _522  and  _523
REMARK  217  A    between atoms: _523  and  _524
REMARK  218  A    between atoms: _524  and  _525
REMARK  219  A    between atoms: _534  and  _536
REMARK  220  A    between atoms: _536  and  _537
REMARK  221  A    between atoms: _536  and  _539
REMARK  222  A    between atoms: _539  and  _540
REMARK  223  A    between atoms: _543  and  _545
REMARK  224  A    between atoms: _545  and  _546
REMARK  225  A    between atoms: _545  and  _548
REMARK  226  A    between atoms: _548  and  _549
REMARK  227  A    between atoms: _552  and  _554
REMARK  228  A    between atoms: _554  and  _555
REMARK  229  A    between atoms: _554  and  _557
REMARK  230  A    between atoms: _557  and  _558
REMARK  231  A    between atoms: _563  and  _565
REMARK  232  A    between atoms: _565  and  _566
REMARK  233  A    between atoms: _565  and  _568
REMARK  234  A    between atoms: _568  and  _569
REMARK  235  A    between atoms: _572  and  _574
REMARK  236  A    between atoms: _574  and  _575
REMARK  237  A    between atoms: _578  and  _580
REMARK  238  A    between atoms: _580  and  _581
REMARK  239  A    between atoms: _580  and  _583
REMARK  240  A    between atoms: _583  and  _584
REMARK  241  A    between atoms: _584  and  _585
REMARK  242  A    between atoms: _585  and  _586
REMARK  243  A    between atoms: _586  and  _587
REMARK  244  A    between atoms: _591  and  _593
REMARK  245  A    between atoms: _593  and  _594
REMARK  246  A    between atoms: _593  and  _596
REMARK  247  A    between atoms: _596  and  _597
REMARK  248  A    between atoms: _600  and  _602
REMARK  249  A    between atoms: _602  and  _603
REMARK  250  A    between atoms: _602  and  _605
REMARK  251  A    between atoms: _605  and  _606
REMARK  252  A    between atoms: _609  and  _611
REMARK  253  A    between atoms: _611  and  _612
REMARK  254  A    between atoms: _611  and  _614
REMARK  255  A    between atoms: _614  and  _615
REMARK  256  A    between atoms: _618  and  _620
REMARK  257  A    between atoms: _620  and  _621
REMARK  258  A    between atoms: _620  and  _623
REMARK  259  A    between atoms: _623  and  _624
REMARK  260  A    between atoms: _630  and  _632
REMARK  261  A    between atoms: _632  and  _633
REMARK  262  A    between atoms: _635  and  _637
REMARK  263  A    between atoms: _637  and  _638
REMARK  264  A    between atoms: _637  and  _640
REMARK  265  A    between atoms: _640  and  _641
REMARK  266  A    between atoms: _644  and  _646
REMARK  267  A    between atoms: _646  and  _647
REMARK  268  A    between atoms: _646  and  _649
REMARK  269  A    between atoms: _649  and  _650
REMARK  270  A    between atoms: _653  and  _655
REMARK  271  A    between atoms: _655  and  _656
REMARK  272  A    between atoms: _655  and  _658
REMARK  273  A    between atoms: _658  and  _659
REMARK  274  A    between atoms: _664  and  _665
REMARK  275  A    between atoms: _667  and  _669
REMARK  276  A    between atoms: _669  and  _670
REMARK  277  A    between atoms: _669  and  _672
REMARK  278  A    between atoms: _672  and  _673
REMARK  279  A    between atoms: _673  and  _674
REMARK                            x       y       z     vdW  Elec       q    Type
REMARK                         _______ _______ _______ _____ _____    ______ ____
ROOT
ATOM      1  O   HOH     1      12.803   0.645  -0.730  0.00  0.00    +0.000 OA
ENDROOT
TORSDOF 0
REMARK  Name = ../refined-set-2016/3gcu/3gcu_pocket.pdb
REMARK  279 active torsions:
REMARK  status: ('A' for Active; 'I' for Inactive)
REMARK    1  A    between atoms: _2  and  _3
REMARK    2  A    between atoms: _8  and  _10
REMARK    3  A    between atoms: _10  and  _11
REMARK    4  A    between atoms: _10  and  _13
REMARK    5  A    between atoms: _16  and  _18
REMARK    6  A    between atoms: _18  and  _19
REMARK    7  A    between atoms: _21  and  _23
REMARK    8  A    between atoms: _23  and  _24
REMARK    9  A    between atoms: _23  and  _26
REMARK   10  A    between atoms: _26  and  _27
REMARK   11  A    between atoms: _29  and  _31
REMARK   12  A    between atoms: _31  and  _32
REMARK   13  A    between atoms: _31  and  _34
REMARK   14  A    between atoms: _34  and  _35
REMARK   15  A    between atoms: _40  and  _41
REMARK   16  A    between atoms: _43  and  _45
REMARK   17  A    between atoms: _45  and  _46
REMARK   18  A    between atoms: _45  and  _48
REMARK   19  A    between atoms: _48  and  _49
REMARK   20  A    between atoms: _51  and  _53
REMARK   21  A    between atoms: _53  and  _54
REMARK   22  A    between atoms: _53  and  _56
REMARK   23  A    between atoms: _59  and  _61
REMARK   24  A    between atoms: _61  and  _62
REMARK   25  A    between atoms: _61  and  _64
REMARK   26  A    between atoms: _66  and  _68
REMARK   27  A    between atoms: _68  and  _69
REMARK   28  A    between atoms: _72  and  _74
REMARK   29  A    between atoms: _74  and  _75
REMARK   30  A    between atoms: _78  and  _80
REMARK   31  A    between atoms: _80  and  _81
REMARK   32  A    between atoms: _80  and  _83
REMARK   33  A    between atoms: _83  and  _84
REMARK   34  A    between atoms: _84  and  _85
REMARK   35  A    between atoms: _85  and  _86
REMARK   36  A    between atoms: _95  and  _97
REMARK   37  A    between atoms: _97  and  _98
REMARK   38  A    between atoms: _97  and  _100
REMARK   39  A    between atoms: _103  and  _105
REMARK   40  A    between atoms: _105  and  _106
REMARK   41  A    between atoms: _109  and  _111
REMARK   42  A    between atoms: _111  and  _112
REMARK   43  A    between atoms: _111  and  _114
REMARK   44  A    between atoms: _117  and  _119
REMARK   45  A    between atoms: _119  and  _120
REMARK   46  A    between atoms: _119  and  _122
REMARK   47  A    between atoms: _122  and  _123
REMARK   48  A    between atoms: _123  and  _124
REMARK   49  A    between atoms: _124  and  _125
REMARK   50  A    between atoms: _125  and  _126
REMARK   51  A    between atoms: _130  and  _132
REMARK   52  A    between atoms: _132  and  _133
REMARK   53  A    between atoms: _132  and  _135
REMARK   54  A    between atoms: _135  and  _136
REMARK   55  A    between atoms: _136  and  _137
REMARK   56  A    between atoms: _137  and  _138
REMARK   57  A    between atoms: _138  and  _139
REMARK   58  A    between atoms: _143  and  _145
REMARK   59  A    between atoms: _145  and  _146
REMARK   60  A    between atoms: _145  and  _148
REMARK   61  A    between atoms: _148  and  _149
REMARK   62  A    between atoms: _152  and  _154
REMARK   63  A    between atoms: _154  and  _155
REMARK   64  A    between atoms: _154  and  _157
REMARK   65  A    between atoms: _157  and  _158
REMARK   66  A    between atoms: _161  and  _163
REMARK   67  A    between atoms: _163  and  _164
REMARK   68  A    between atoms: _163  and  _166
REMARK   69  A    between atoms: _166  and  _167
REMARK   70  A    between atoms: _172  and  _174
REMARK   71  A    between atoms: _174  and  _175
REMARK   72  A    between atoms: _174  and  _177
REMARK   73  A    between atoms: _177  and  _178
REMARK   74  A    between atoms: _178  and  _179
REMARK   75  A    between atoms: _179  and  _180
REMARK   76  A    between atoms: _180  and  _181
REMARK   77  A    between atoms: _185  and  _187
REMARK   78  A    between atoms: _187  and  _188
REMARK   79  A    between atoms: _187  and  _190
REMARK   80  A    between atoms: _190  and  _191
REMARK   81  A    between atoms: _191  and  _192
REMARK   82  A    between atoms: _192  and  _193
REMARK   83  A    between atoms: _202  and  _204
REMARK   84  A    between atoms: _204  and  _205
REMARK   85  A    between atoms: _204  and  _207
REMARK   86  A    between atoms: _207  and  _208
REMARK   87  A    between atoms: _211  and  _213
REMARK   88  A    between atoms: _213  and  _214
REMARK   89  A    between atoms: _213  and  _216
REMARK   90  A    between atoms: _216  and  _217
REMARK   91  A    between atoms: _222  and  _223
REMARK   92  A    between atoms: _225  and  _227
REMARK   93  A    between atoms: _227  and  _228
REMARK   94  A    between atoms: _227  and  _230
REMARK   95  A    between atoms: _230  and  _231
REMARK   96  A    between atoms: _231  and  _232
REMARK   97  A    between atoms: _232  and  _233
REMARK   98  A    between atoms: _242  and  _244
REMARK   99  A    between atoms: _244  and  _245
REMARK  100  A    between atoms: _244  and  _247
REMARK  101  A    between atoms: _247  and  _248
REMARK  102  A    between atoms: _248  and  _249
REMARK  103  A    between atoms: _252  and  _254
REMARK  104  A    between atoms: _254  and  _255
REMARK  105  A    between atoms: _254  and  _257
REMARK  106  A    between atoms: _257  and  _258
REMARK  107  A    between atoms: _261  and  _263
REMARK  108  A    between atoms: _263  and  _264
REMARK  109  A    between atoms: _263  and  _266
REMARK  110  A    between atoms: _266  and  _267
REMARK  111  A    between atoms: _267  and  _268
REMARK  112  A    between atoms: _268  and  _269
REMARK  113  A    between atoms: _278  and  _280
REMARK  114  A    between atoms: _280  and  _281
REMARK  115  A    between atoms: _280  and  _283
REMARK  116  A    between atoms: _283  and  _284
REMARK  117  A    between atoms: _287  and  _289
REMARK  118  A    between atoms: _289  and  _290
REMARK  119  A    between atoms: _289  and  _292
REMARK  120  A    between atoms: _292  and  _293
REMARK  121  A    between atoms: _296  and  _298
REMARK  122  A    between atoms: _298  and  _299
REMARK  123  A    between atoms: _298  and  _301
REMARK  124  A    between atoms: _301  and  _302
REMARK  125  A    between atoms: _307  and  _309
REMARK  126  A    between atoms: _309  and  _310
REMARK  127  A    between atoms: _309  and  _312
REMARK  128  A    between atoms: _312  and  _313
REMARK  129  A    between atoms: _313  and  _314
REMARK  130  A    between atoms: _316  and  _318
REMARK  131  A    between atoms: _318  and  _319
REMARK  132  A    between atoms: _318  and  _321
REMARK  133  A    between atoms: _321  and  _322
REMARK  134  A    between atoms: _327  and  _329
REMARK  135  A    between atoms: _329  and  _330
REMARK  136  A    between atoms: _329  and  _332
REMARK  137  A    between atoms: _335  and  _337
REMARK  138  A    between atoms: _337  and  _338
REMARK  139  A    between atoms: _337  and  _340
REMARK  140  A    between atoms: _340  and  _341
REMARK  141  A    between atoms: _344  and  _346
REMARK  142  A    between atoms: _346  and  _347
REMARK  143  A    between atoms: _349  and  _351
REMARK  144  A    between atoms: _351  and  _352
REMARK  145  A    between atoms: _351  and  _354
REMARK  146  A    between atoms: _354  and  _355
REMARK  147  A    between atoms: _358  and  _360
REMARK  148  A    between atoms: _360  and  _361
REMARK  149  A    between atoms: _360  and  _363
REMARK  150  A    between atoms: _363  and  _364
REMARK  151  A    between atoms: _367  and  _369
REMARK  152  A    between atoms: _369  and  _370
REMARK  153  A    between atoms: _369  and  _372
REMARK  154  A    between atoms: _372  and  _373
REMARK  155  A    between atoms: _376  and  _378
REMARK  156  A    between atoms: _378  and  _379
REMARK  157  A    between atoms: _378  and  _381
REMARK  158  A    between atoms: _381  and  _382
REMARK  159  A    between atoms: _387  and  _388
REMARK  160  A    between atoms: _390  and  _392
REMARK  161  A    between atoms: _392  and  _393
REMARK  162  A    between atoms: _392  and  _395
REMARK  163  A    between atoms: _395  and  _396
REMARK  164  A    between atoms: _399  and  _401
REMARK  165  A    between atoms: _401  and  _402
REMARK  166  A    between atoms: _401  and  _404
REMARK  167  A    between atoms: _407  and  _409
REMARK  168  A    between atoms: _409  and  _410
REMARK  169  A    between atoms: _409  and  _412
REMARK  170  A    between atoms: _412  and  _413
REMARK  171  A    between atoms: _416  and  _418
REMARK  172  A    between atoms: _418  and  _419
REMARK  173  A    between atoms: _418  and  _421
REMARK  174  A    between atoms: _421  and  _422
REMARK  175  A    between atoms: _427  and  _429
REMARK  176  A    between atoms: _429  and  _430
REMARK  177  A    between atoms: _429  and  _432
REMARK  178  A    between atoms: _432  and  _433
REMARK  179  A    between atoms: _436  and  _438
REMARK  180  A    between atoms: _438  and  _439
REMARK  181  A    between atoms: _438  and  _441
REMARK  182  A    between atoms: _441  and  _442
REMARK  183  A    between atoms: _442  and  _443
REMARK  184  A    between atoms: _445  and  _447
REMARK  185  A    between atoms: _447  and  _448
REMARK  186  A    between atoms: _450  and  _452
REMARK  187  A    between atoms: _452  and  _453
REMARK  188  A    between atoms: _456  and  _458
REMARK  189  A    between atoms: _458  and  _459
REMARK  190  A    between atoms: _458  and  _461
REMARK  191  A    between atoms: _461  and  _462
REMARK  192  A    between atoms: _465  and  _467
REMARK  193  A    between atoms: _467  and  _468
REMARK  194  A    between atoms: _467  and  _470
REMARK  195  A    between atoms: _470  and  _471
REMARK  196  A    between atoms: _476  and  _477
REMARK  197  A    between atoms: _479  and  _481
REMARK  198  A    between atoms: _481  and  _482
REMARK  199  A    between atoms: _481  and  _484
REMARK  200  A    between atoms: _484  and  _485
REMARK  201  A    between atoms: _488  and  _490
REMARK  202  A    between atoms: _490  and  _491
REMARK  203  A    between atoms: _490  and  _493
REMARK  204  A    between atoms: _493  and  _494
REMARK  205  A    between atoms: _497  and  _499
REMARK  206  A    between atoms: _499  and  _500
REMARK  207  A    between atoms: _499  and  _502
REMARK  208  A    between atoms: _502  and  _503
REMARK  209  A    between atoms: _506  and  _508
REMARK  210  A    between atoms: _508  and  _509
REMARK  211  A    between atoms: _508  and  _511
REMARK  212  A    between atoms: _511  and  _512
REMARK  213  A    between atoms: _517  and  _519
REMARK  214  A    between atoms: _519  and  _520
REMARK  215  A    between atoms: _519  and  _522
REMARK  216  A    between atoms: _522  and  _523
REMARK  217  A    between atoms: _523  and  _524
REMARK  218  A    between atoms: _524  and  _525
REMARK  219  A    between atoms: _534  and  _536
REMARK  220  A    between atoms: _536  and  _537
REMARK  221  A    between atoms: _536  and  _539
REMARK  222  A    between atoms: _539  and  _540
REMARK  223  A    between atoms: _543  and  _545
REMARK  224  A    between atoms: _545  and  _546
REMARK  225  A    between atoms: _545  and  _548
REMARK  226  A    between atoms: _548  and  _549
REMARK  227  A    between atoms: _552  and  _554
REMARK  228  A    between atoms: _554  and  _555
REMARK  229  A    between atoms: _554  and  _557
REMARK  230  A    between atoms: _557  and  _558
REMARK  231  A    between atoms: _563  and  _565
REMARK  232  A    between atoms: _565  and  _566
REMARK  233  A    between atoms: _565  and  _568
REMARK  234  A    between atoms: _568  and  _569
REMARK  235  A    between atoms: _572  and  _574
REMARK  236  A    between atoms: _574  and  _575
REMARK  237  A    between atoms: _578  and  _580
REMARK  238  A    between atoms: _580  and  _581
REMARK  239  A    between atoms: _580  and  _583
REMARK  240  A    between atoms: _583  and  _584
REMARK  241  A    between atoms: _584  and  _585
REMARK  242  A    between atoms: _585  and  _586
REMARK  243  A    between atoms: _586  and  _587
REMARK  244  A    between atoms: _591  and  _593
REMARK  245  A    between atoms: _593  and  _594
REMARK  246  A    between atoms: _593  and  _596
REMARK  247  A    between atoms: _596  and  _597
REMARK  248  A    between atoms: _600  and  _602
REMARK  249  A    between atoms: _602  and  _603
REMARK  250  A    between atoms: _602  and  _605
REMARK  251  A    between atoms: _605  and  _606
REMARK  252  A    between atoms: _609  and  _611
REMARK  253  A    between atoms: _611  and  _612
REMARK  254  A    between atoms: _611  and  _614
REMARK  255  A    between atoms: _614  and  _615
REMARK  256  A    between atoms: _618  and  _620
REMARK  257  A    between atoms: _620  and  _621
REMARK  258  A    between atoms: _620  and  _623
REMARK  259  A    between atoms: _623  and  _624
REMARK  260  A    between atoms: _630  and  _632
REMARK  261  A    between atoms: _632  and  _633
REMARK  262  A    between atoms: _635  and  _637
REMARK  263  A    between atoms: _637  and  _638
REMARK  264  A    between atoms: _637  and  _640
REMARK  265  A    between atoms: _640  and  _641
REMARK  266  A    between atoms: _644  and  _646
REMARK  267  A    between atoms: _646  and  _647
REMARK  268  A    between atoms: _646  and  _649
REMARK  269  A    between atoms: _649  and  _650
REMARK  270  A    between atoms: _653  and  _655
REMARK  271  A    between atoms: _655  and  _656
REMARK  272  A    between atoms: _655  and  _658
REMARK  273  A    between atoms: _658  and  _659
REMARK  274  A    between atoms: _664  and  _665
REMARK  275  A    between atoms: _667  and  _669
REMARK  276  A    between atoms: _669  and  _670
REMARK  277  A    between atoms: _669  and  _672
REMARK  278  A    between atoms: _672  and  _673
REMARK  279  A    between atoms: _673  and  _674
REMARK                            x       y       z     vdW  Elec       q    Type
REMARK                         _______ _______ _______ _____ _____    ______ ____
ROOT
ATOM      1  O   HOH     1      13.194   4.285  -0.493  0.00  0.00    +0.000 OA
ENDROOT
TORSDOF 0
REMARK  Name = ../refined-set-2016/3gcu/3gcu_pocket.pdb
REMARK  279 active torsions:
REMARK  status: ('A' for Active; 'I' for Inactive)
REMARK    1  A    between atoms: _2  and  _3
REMARK    2  A    between atoms: _8  and  _10
REMARK    3  A    between atoms: _10  and  _11
REMARK    4  A    between atoms: _10  and  _13
REMARK    5  A    between atoms: _16  and  _18
REMARK    6  A    between atoms: _18  and  _19
REMARK    7  A    between atoms: _21  and  _23
REMARK    8  A    between atoms: _23  and  _24
REMARK    9  A    between atoms: _23  and  _26
REMARK   10  A    between atoms: _26  and  _27
REMARK   11  A    between atoms: _29  and  _31
REMARK   12  A    between atoms: _31  and  _32
REMARK   13  A    between atoms: _31  and  _34
REMARK   14  A    between atoms: _34  and  _35
REMARK   15  A    between atoms: _40  and  _41
REMARK   16  A    between atoms: _43  and  _45
REMARK   17  A    between atoms: _45  and  _46
REMARK   18  A    between atoms: _45  and  _48
REMARK   19  A    between atoms: _48  and  _49
REMARK   20  A    between atoms: _51  and  _53
REMARK   21  A    between atoms: _53  and  _54
REMARK   22  A    between atoms: _53  and  _56
REMARK   23  A    between atoms: _59  and  _61
REMARK   24  A    between atoms: _61  and  _62
REMARK   25  A    between atoms: _61  and  _64
REMARK   26  A    between atoms: _66  and  _68
REMARK   27  A    between atoms: _68  and  _69
REMARK   28  A    between atoms: _72  and  _74
REMARK   29  A    between atoms: _74  and  _75
REMARK   30  A    between atoms: _78  and  _80
REMARK   31  A    between atoms: _80  and  _81
REMARK   32  A    between atoms: _80  and  _83
REMARK   33  A    between atoms: _83  and  _84
REMARK   34  A    between atoms: _84  and  _85
REMARK   35  A    between atoms: _85  and  _86
REMARK   36  A    between atoms: _95  and  _97
REMARK   37  A    between atoms: _97  and  _98
REMARK   38  A    between atoms: _97  and  _100
REMARK   39  A    between atoms: _103  and  _105
REMARK   40  A    between atoms: _105  and  _106
REMARK   41  A    between atoms: _109  and  _111
REMARK   42  A    between atoms: _111  and  _112
REMARK   43  A    between atoms: _111  and  _114
REMARK   44  A    between atoms: _117  and  _119
REMARK   45  A    between atoms: _119  and  _120
REMARK   46  A    between atoms: _119  and  _122
REMARK   47  A    between atoms: _122  and  _123
REMARK   48  A    between atoms: _123  and  _124
REMARK   49  A    between atoms: _124  and  _125
REMARK   50  A    between atoms: _125  and  _126
REMARK   51  A    between atoms: _130  and  _132
REMARK   52  A    between atoms: _132  and  _133
REMARK   53  A    between atoms: _132  and  _135
REMARK   54  A    between atoms: _135  and  _136
REMARK   55  A    between atoms: _136  and  _137
REMARK   56  A    between atoms: _137  and  _138
REMARK   57  A    between atoms: _138  and  _139
REMARK   58  A    between atoms: _143  and  _145
REMARK   59  A    between atoms: _145  and  _146
REMARK   60  A    between atoms: _145  and  _148
REMARK   61  A    between atoms: _148  and  _149
REMARK   62  A    between atoms: _152  and  _154
REMARK   63  A    between atoms: _154  and  _155
REMARK   64  A    between atoms: _154  and  _157
REMARK   65  A    between atoms: _157  and  _158
REMARK   66  A    between atoms: _161  and  _163
REMARK   67  A    between atoms: _163  and  _164
REMARK   68  A    between atoms: _163  and  _166
REMARK   69  A    between atoms: _166  and  _167
REMARK   70  A    between atoms: _172  and  _174
REMARK   71  A    between atoms: _174  and  _175
REMARK   72  A    between atoms: _174  and  _177
REMARK   73  A    between atoms: _177  and  _178
REMARK   74  A    between atoms: _178  and  _179
REMARK   75  A    between atoms: _179  and  _180
REMARK   76  A    between atoms: _180  and  _181
REMARK   77  A    between atoms: _185  and  _187
REMARK   78  A    between atoms: _187  and  _188
REMARK   79  A    between atoms: _187  and  _190
REMARK   80  A    between atoms: _190  and  _191
REMARK   81  A    between atoms: _191  and  _192
REMARK   82  A    between atoms: _192  and  _193
REMARK   83  A    between atoms: _202  and  _204
REMARK   84  A    between atoms: _204  and  _205
REMARK   85  A    between atoms: _204  and  _207
REMARK   86  A    between atoms: _207  and  _208
REMARK   87  A    between atoms: _211  and  _213
REMARK   88  A    between atoms: _213  and  _214
REMARK   89  A    between atoms: _213  and  _216
REMARK   90  A    between atoms: _216  and  _217
REMARK   91  A    between atoms: _222  and  _223
REMARK   92  A    between atoms: _225  and  _227
REMARK   93  A    between atoms: _227  and  _228
REMARK   94  A    between atoms: _227  and  _230
REMARK   95  A    between atoms: _230  and  _231
REMARK   96  A    between atoms: _231  and  _232
REMARK   97  A    between atoms: _232  and  _233
REMARK   98  A    between atoms: _242  and  _244
REMARK   99  A    between atoms: _244  and  _245
REMARK  100  A    between atoms: _244  and  _247
REMARK  101  A    between atoms: _247  and  _248
REMARK  102  A    between atoms: _248  and  _249
REMARK  103  A    between atoms: _252  and  _254
REMARK  104  A    between atoms: _254  and  _255
REMARK  105  A    between atoms: _254  and  _257
REMARK  106  A    between atoms: _257  and  _258
REMARK  107  A    between atoms: _261  and  _263
REMARK  108  A    between atoms: _263  and  _264
REMARK  109  A    between atoms: _263  and  _266
REMARK  110  A    between atoms: _266  and  _267
REMARK  111  A    between atoms: _267  and  _268
REMARK  112  A    between atoms: _268  and  _269
REMARK  113  A    between atoms: _278  and  _280
REMARK  114  A    between atoms: _280  and  _281
REMARK  115  A    between atoms: _280  and  _283
REMARK  116  A    between atoms: _283  and  _284
REMARK  117  A    between atoms: _287  and  _289
REMARK  118  A    between atoms: _289  and  _290
REMARK  119  A    between atoms: _289  and  _292
REMARK  120  A    between atoms: _292  and  _293
REMARK  121  A    between atoms: _296  and  _298
REMARK  122  A    between atoms: _298  and  _299
REMARK  123  A    between atoms: _298  and  _301
REMARK  124  A    between atoms: _301  and  _302
REMARK  125  A    between atoms: _307  and  _309
REMARK  126  A    between atoms: _309  and  _310
REMARK  127  A    between atoms: _309  and  _312
REMARK  128  A    between atoms: _312  and  _313
REMARK  129  A    between atoms: _313  and  _314
REMARK  130  A    between atoms: _316  and  _318
REMARK  131  A    between atoms: _318  and  _319
REMARK  132  A    between atoms: _318  and  _321
REMARK  133  A    between atoms: _321  and  _322
REMARK  134  A    between atoms: _327  and  _329
REMARK  135  A    between atoms: _329  and  _330
REMARK  136  A    between atoms: _329  and  _332
REMARK  137  A    between atoms: _335  and  _337
REMARK  138  A    between atoms: _337  and  _338
REMARK  139  A    between atoms: _337  and  _340
REMARK  140  A    between atoms: _340  and  _341
REMARK  141  A    between atoms: _344  and  _346
REMARK  142  A    between atoms: _346  and  _347
REMARK  143  A    between atoms: _349  and  _351
REMARK  144  A    between atoms: _351  and  _352
REMARK  145  A    between atoms: _351  and  _354
REMARK  146  A    between atoms: _354  and  _355
REMARK  147  A    between atoms: _358  and  _360
REMARK  148  A    between atoms: _360  and  _361
REMARK  149  A    between atoms: _360  and  _363
REMARK  150  A    between atoms: _363  and  _364
REMARK  151  A    between atoms: _367  and  _369
REMARK  152  A    between atoms: _369  and  _370
REMARK  153  A    between atoms: _369  and  _372
REMARK  154  A    between atoms: _372  and  _373
REMARK  155  A    between atoms: _376  and  _378
REMARK  156  A    between atoms: _378  and  _379
REMARK  157  A    between atoms: _378  and  _381
REMARK  158  A    between atoms: _381  and  _382
REMARK  159  A    between atoms: _387  and  _388
REMARK  160  A    between atoms: _390  and  _392
REMARK  161  A    between atoms: _392  and  _393
REMARK  162  A    between atoms: _392  and  _395
REMARK  163  A    between atoms: _395  and  _396
REMARK  164  A    between atoms: _399  and  _401
REMARK  165  A    between atoms: _401  and  _402
REMARK  166  A    between atoms: _401  and  _404
REMARK  167  A    between atoms: _407  and  _409
REMARK  168  A    between atoms: _409  and  _410
REMARK  169  A    between atoms: _409  and  _412
REMARK  170  A    between atoms: _412  and  _413
REMARK  171  A    between atoms: _416  and  _418
REMARK  172  A    between atoms: _418  and  _419
REMARK  173  A    between atoms: _418  and  _421
REMARK  174  A    between atoms: _421  and  _422
REMARK  175  A    between atoms: _427  and  _429
REMARK  176  A    between atoms: _429  and  _430
REMARK  177  A    between atoms: _429  and  _432
REMARK  178  A    between atoms: _432  and  _433
REMARK  179  A    between atoms: _436  and  _438
REMARK  180  A    between atoms: _438  and  _439
REMARK  181  A    between atoms: _438  and  _441
REMARK  182  A    between atoms: _441  and  _442
REMARK  183  A    between atoms: _442  and  _443
REMARK  184  A    between atoms: _445  and  _447
REMARK  185  A    between atoms: _447  and  _448
REMARK  186  A    between atoms: _450  and  _452
REMARK  187  A    between atoms: _452  and  _453
REMARK  188  A    between atoms: _456  and  _458
REMARK  189  A    between atoms: _458  and  _459
REMARK  190  A    between atoms: _458  and  _461
REMARK  191  A    between atoms: _461  and  _462
REMARK  192  A    between atoms: _465  and  _467
REMARK  193  A    between atoms: _467  and  _468
REMARK  194  A    between atoms: _467  and  _470
REMARK  195  A    between atoms: _470  and  _471
REMARK  196  A    between atoms: _476  and  _477
REMARK  197  A    between atoms: _479  and  _481
REMARK  198  A    between atoms: _481  and  _482
REMARK  199  A    between atoms: _481  and  _484
REMARK  200  A    between atoms: _484  and  _485
REMARK  201  A    between atoms: _488  and  _490
REMARK  202  A    between atoms: _490  and  _491
REMARK  203  A    between atoms: _490  and  _493
REMARK  204  A    between atoms: _493  and  _494
REMARK  205  A    between atoms: _497  and  _499
REMARK  206  A    between atoms: _499  and  _500
REMARK  207  A    between atoms: _499  and  _502
REMARK  208  A    between atoms: _502  and  _503
REMARK  209  A    between atoms: _506  and  _508
REMARK  210  A    between atoms: _508  and  _509
REMARK  211  A    between atoms: _508  and  _511
REMARK  212  A    between atoms: _511  and  _512
REMARK  213  A    between atoms: _517  and  _519
REMARK  214  A    between atoms: _519  and  _520
REMARK  215  A    between atoms: _519  and  _522
REMARK  216  A    between atoms: _522  and  _523
REMARK  217  A    between atoms: _523  and  _524
REMARK  218  A    between atoms: _524  and  _525
REMARK  219  A    between atoms: _534  and  _536
REMARK  220  A    between atoms: _536  and  _537
REMARK  221  A    between atoms: _536  and  _539
REMARK  222  A    between atoms: _539  and  _540
REMARK  223  A    between atoms: _543  and  _545
REMARK  224  A    between atoms: _545  and  _546
REMARK  225  A    between atoms: _545  and  _548
REMARK  226  A    between atoms: _548  and  _549
REMARK  227  A    between atoms: _552  and  _554
REMARK  228  A    between atoms: _554  and  _555
REMARK  229  A    between atoms: _554  and  _557
REMARK  230  A    between atoms: _557  and  _558
REMARK  231  A    between atoms: _563  and  _565
REMARK  232  A    between atoms: _565  and  _566
REMARK  233  A    between atoms: _565  and  _568
REMARK  234  A    between atoms: _568  and  _569
REMARK  235  A    between atoms: _572  and  _574
REMARK  236  A    between atoms: _574  and  _575
REMARK  237  A    between atoms: _578  and  _580
REMARK  238  A    between atoms: _580  and  _581
REMARK  239  A    between atoms: _580  and  _583
REMARK  240  A    between atoms: _583  and  _584
REMARK  241  A    between atoms: _584  and  _585
REMARK  242  A    between atoms: _585  and  _586
REMARK  243  A    between atoms: _586  and  _587
REMARK  244  A    between atoms: _591  and  _593
REMARK  245  A    between atoms: _593  and  _594
REMARK  246  A    between atoms: _593  and  _596
REMARK  247  A    between atoms: _596  and  _597
REMARK  248  A    between atoms: _600  and  _602
REMARK  249  A    between atoms: _602  and  _603
REMARK  250  A    between atoms: _602  and  _605
REMARK  251  A    between atoms: _605  and  _606
REMARK  252  A    between atoms: _609  and  _611
REMARK  253  A    between atoms: _611  and  _612
REMARK  254  A    between atoms: _611  and  _614
REMARK  255  A    between atoms: _614  and  _615
REMARK  256  A    between atoms: _618  and  _620
REMARK  257  A    between atoms: _620  and  _621
REMARK  258  A    between atoms: _620  and  _623
REMARK  259  A    between atoms: _623  and  _624
REMARK  260  A    between atoms: _630  and  _632
REMARK  261  A    between atoms: _632  and  _633
REMARK  262  A    between atoms: _635  and  _637
REMARK  263  A    between atoms: _637  and  _638
REMARK  264  A    between atoms: _637  and  _640
REMARK  265  A    between atoms: _640  and  _641
REMARK  266  A    between atoms: _644  and  _646
REMARK  267  A    between atoms: _646  and  _647
REMARK  268  A    between atoms: _646  and  _649
REMARK  269  A    between atoms: _649  and  _650
REMARK  270  A    between atoms: _653  and  _655
REMARK  271  A    between atoms: _655  and  _656
REMARK  272  A    between atoms: _655  and  _658
REMARK  273  A    between atoms: _658  and  _659
REMARK  274  A    between atoms: _664  and  _665
REMARK  275  A    between atoms: _667  and  _669
REMARK  276  A    between atoms: _669  and  _670
REMARK  277  A    between atoms: _669  and  _672
REMARK  278  A    between atoms: _672  and  _673
REMARK  279  A    between atoms: _673  and  _674
REMARK                            x       y       z     vdW  Elec       q    Type
REMARK                         _______ _______ _______ _____ _____    ______ ____
ROOT
ATOM      1  O   HOH     1      14.082  -5.878   9.601  0.00  0.00    +0.000 OA
ENDROOT
TORSDOF 0
REMARK  Name = ../refined-set-2016/3gcu/3gcu_pocket.pdb
REMARK  279 active torsions:
REMARK  status: ('A' for Active; 'I' for Inactive)
REMARK    1  A    between atoms: _2  and  _3
REMARK    2  A    between atoms: _8  and  _10
REMARK    3  A    between atoms: _10  and  _11
REMARK    4  A    between atoms: _10  and  _13
REMARK    5  A    between atoms: _16  and  _18
REMARK    6  A    between atoms: _18  and  _19
REMARK    7  A    between atoms: _21  and  _23
REMARK    8  A    between atoms: _23  and  _24
REMARK    9  A    between atoms: _23  and  _26
REMARK   10  A    between atoms: _26  and  _27
REMARK   11  A    between atoms: _29  and  _31
REMARK   12  A    between atoms: _31  and  _32
REMARK   13  A    between atoms: _31  and  _34
REMARK   14  A    between atoms: _34  and  _35
REMARK   15  A    between atoms: _40  and  _41
REMARK   16  A    between atoms: _43  and  _45
REMARK   17  A    between atoms: _45  and  _46
REMARK   18  A    between atoms: _45  and  _48
REMARK   19  A    between atoms: _48  and  _49
REMARK   20  A    between atoms: _51  and  _53
REMARK   21  A    between atoms: _53  and  _54
REMARK   22  A    between atoms: _53  and  _56
REMARK   23  A    between atoms: _59  and  _61
REMARK   24  A    between atoms: _61  and  _62
REMARK   25  A    between atoms: _61  and  _64
REMARK   26  A    between atoms: _66  and  _68
REMARK   27  A    between atoms: _68  and  _69
REMARK   28  A    between atoms: _72  and  _74
REMARK   29  A    between atoms: _74  and  _75
REMARK   30  A    between atoms: _78  and  _80
REMARK   31  A    between atoms: _80  and  _81
REMARK   32  A    between atoms: _80  and  _83
REMARK   33  A    between atoms: _83  and  _84
REMARK   34  A    between atoms: _84  and  _85
REMARK   35  A    between atoms: _85  and  _86
REMARK   36  A    between atoms: _95  and  _97
REMARK   37  A    between atoms: _97  and  _98
REMARK   38  A    between atoms: _97  and  _100
REMARK   39  A    between atoms: _103  and  _105
REMARK   40  A    between atoms: _105  and  _106
REMARK   41  A    between atoms: _109  and  _111
REMARK   42  A    between atoms: _111  and  _112
REMARK   43  A    between atoms: _111  and  _114
REMARK   44  A    between atoms: _117  and  _119
REMARK   45  A    between atoms: _119  and  _120
REMARK   46  A    between atoms: _119  and  _122
REMARK   47  A    between atoms: _122  and  _123
REMARK   48  A    between atoms: _123  and  _124
REMARK   49  A    between atoms: _124  and  _125
REMARK   50  A    between atoms: _125  and  _126
REMARK   51  A    between atoms: _130  and  _132
REMARK   52  A    between atoms: _132  and  _133
REMARK   53  A    between atoms: _132  and  _135
REMARK   54  A    between atoms: _135  and  _136
REMARK   55  A    between atoms: _136  and  _137
REMARK   56  A    between atoms: _137  and  _138
REMARK   57  A    between atoms: _138  and  _139
REMARK   58  A    between atoms: _143  and  _145
REMARK   59  A    between atoms: _145  and  _146
REMARK   60  A    between atoms: _145  and  _148
REMARK   61  A    between atoms: _148  and  _149
REMARK   62  A    between atoms: _152  and  _154
REMARK   63  A    between atoms: _154  and  _155
REMARK   64  A    between atoms: _154  and  _157
REMARK   65  A    between atoms: _157  and  _158
REMARK   66  A    between atoms: _161  and  _163
REMARK   67  A    between atoms: _163  and  _164
REMARK   68  A    between atoms: _163  and  _166
REMARK   69  A    between atoms: _166  and  _167
REMARK   70  A    between atoms: _172  and  _174
REMARK   71  A    between atoms: _174  and  _175
REMARK   72  A    between atoms: _174  and  _177
REMARK   73  A    between atoms: _177  and  _178
REMARK   74  A    between atoms: _178  and  _179
REMARK   75  A    between atoms: _179  and  _180
REMARK   76  A    between atoms: _180  and  _181
REMARK   77  A    between atoms: _185  and  _187
REMARK   78  A    between atoms: _187  and  _188
REMARK   79  A    between atoms: _187  and  _190
REMARK   80  A    between atoms: _190  and  _191
REMARK   81  A    between atoms: _191  and  _192
REMARK   82  A    between atoms: _192  and  _193
REMARK   83  A    between atoms: _202  and  _204
REMARK   84  A    between atoms: _204  and  _205
REMARK   85  A    between atoms: _204  and  _207
REMARK   86  A    between atoms: _207  and  _208
REMARK   87  A    between atoms: _211  and  _213
REMARK   88  A    between atoms: _213  and  _214
REMARK   89  A    between atoms: _213  and  _216
REMARK   90  A    between atoms: _216  and  _217
REMARK   91  A    between atoms: _222  and  _223
REMARK   92  A    between atoms: _225  and  _227
REMARK   93  A    between atoms: _227  and  _228
REMARK   94  A    between atoms: _227  and  _230
REMARK   95  A    between atoms: _230  and  _231
REMARK   96  A    between atoms: _231  and  _232
REMARK   97  A    between atoms: _232  and  _233
REMARK   98  A    between atoms: _242  and  _244
REMARK   99  A    between atoms: _244  and  _245
REMARK  100  A    between atoms: _244  and  _247
REMARK  101  A    between atoms: _247  and  _248
REMARK  102  A    between atoms: _248  and  _249
REMARK  103  A    between atoms: _252  and  _254
REMARK  104  A    between atoms: _254  and  _255
REMARK  105  A    between atoms: _254  and  _257
REMARK  106  A    between atoms: _257  and  _258
REMARK  107  A    between atoms: _261  and  _263
REMARK  108  A    between atoms: _263  and  _264
REMARK  109  A    between atoms: _263  and  _266
REMARK  110  A    between atoms: _266  and  _267
REMARK  111  A    between atoms: _267  and  _268
REMARK  112  A    between atoms: _268  and  _269
REMARK  113  A    between atoms: _278  and  _280
REMARK  114  A    between atoms: _280  and  _281
REMARK  115  A    between atoms: _280  and  _283
REMARK  116  A    between atoms: _283  and  _284
REMARK  117  A    between atoms: _287  and  _289
REMARK  118  A    between atoms: _289  and  _290
REMARK  119  A    between atoms: _289  and  _292
REMARK  120  A    between atoms: _292  and  _293
REMARK  121  A    between atoms: _296  and  _298
REMARK  122  A    between atoms: _298  and  _299
REMARK  123  A    between atoms: _298  and  _301
REMARK  124  A    between atoms: _301  and  _302
REMARK  125  A    between atoms: _307  and  _309
REMARK  126  A    between atoms: _309  and  _310
REMARK  127  A    between atoms: _309  and  _312
REMARK  128  A    between atoms: _312  and  _313
REMARK  129  A    between atoms: _313  and  _314
REMARK  130  A    between atoms: _316  and  _318
REMARK  131  A    between atoms: _318  and  _319
REMARK  132  A    between atoms: _318  and  _321
REMARK  133  A    between atoms: _321  and  _322
REMARK  134  A    between atoms: _327  and  _329
REMARK  135  A    between atoms: _329  and  _330
REMARK  136  A    between atoms: _329  and  _332
REMARK  137  A    between atoms: _335  and  _337
REMARK  138  A    between atoms: _337  and  _338
REMARK  139  A    between atoms: _337  and  _340
REMARK  140  A    between atoms: _340  and  _341
REMARK  141  A    between atoms: _344  and  _346
REMARK  142  A    between atoms: _346  and  _347
REMARK  143  A    between atoms: _349  and  _351
REMARK  144  A    between atoms: _351  and  _352
REMARK  145  A    between atoms: _351  and  _354
REMARK  146  A    between atoms: _354  and  _355
REMARK  147  A    between atoms: _358  and  _360
REMARK  148  A    between atoms: _360  and  _361
REMARK  149  A    between atoms: _360  and  _363
REMARK  150  A    between atoms: _363  and  _364
REMARK  151  A    between atoms: _367  and  _369
REMARK  152  A    between atoms: _369  and  _370
REMARK  153  A    between atoms: _369  and  _372
REMARK  154  A    between atoms: _372  and  _373
REMARK  155  A    between atoms: _376  and  _378
REMARK  156  A    between atoms: _378  and  _379
REMARK  157  A    between atoms: _378  and  _381
REMARK  158  A    between atoms: _381  and  _382
REMARK  159  A    between atoms: _387  and  _388
REMARK  160  A    between atoms: _390  and  _392
REMARK  161  A    between atoms: _392  and  _393
REMARK  162  A    between atoms: _392  and  _395
REMARK  163  A    between atoms: _395  and  _396
REMARK  164  A    between atoms: _399  and  _401
REMARK  165  A    between atoms: _401  and  _402
REMARK  166  A    between atoms: _401  and  _404
REMARK  167  A    between atoms: _407  and  _409
REMARK  168  A    between atoms: _409  and  _410
REMARK  169  A    between atoms: _409  and  _412
REMARK  170  A    between atoms: _412  and  _413
REMARK  171  A    between atoms: _416  and  _418
REMARK  172  A    between atoms: _418  and  _419
REMARK  173  A    between atoms: _418  and  _421
REMARK  174  A    between atoms: _421  and  _422
REMARK  175  A    between atoms: _427  and  _429
REMARK  176  A    between atoms: _429  and  _430
REMARK  177  A    between atoms: _429  and  _432
REMARK  178  A    between atoms: _432  and  _433
REMARK  179  A    between atoms: _436  and  _438
REMARK  180  A    between atoms: _438  and  _439
REMARK  181  A    between atoms: _438  and  _441
REMARK  182  A    between atoms: _441  and  _442
REMARK  183  A    between atoms: _442  and  _443
REMARK  184  A    between atoms: _445  and  _447
REMARK  185  A    between atoms: _447  and  _448
REMARK  186  A    between atoms: _450  and  _452
REMARK  187  A    between atoms: _452  and  _453
REMARK  188  A    between atoms: _456  and  _458
REMARK  189  A    between atoms: _458  and  _459
REMARK  190  A    between atoms: _458  and  _461
REMARK  191  A    between atoms: _461  and  _462
REMARK  192  A    between atoms: _465  and  _467
REMARK  193  A    between atoms: _467  and  _468
REMARK  194  A    between atoms: _467  and  _470
REMARK  195  A    between atoms: _470  and  _471
REMARK  196  A    between atoms: _476  and  _477
REMARK  197  A    between atoms: _479  and  _481
REMARK  198  A    between atoms: _481  and  _482
REMARK  199  A    between atoms: _481  and  _484
REMARK  200  A    between atoms: _484  and  _485
REMARK  201  A    between atoms: _488  and  _490
REMARK  202  A    between atoms: _490  and  _491
REMARK  203  A    between atoms: _490  and  _493
REMARK  204  A    between atoms: _493  and  _494
REMARK  205  A    between atoms: _497  and  _499
REMARK  206  A    between atoms: _499  and  _500
REMARK  207  A    between atoms: _499  and  _502
REMARK  208  A    between atoms: _502  and  _503
REMARK  209  A    between atoms: _506  and  _508
REMARK  210  A    between atoms: _508  and  _509
REMARK  211  A    between atoms: _508  and  _511
REMARK  212  A    between atoms: _511  and  _512
REMARK  213  A    between atoms: _517  and  _519
REMARK  214  A    between atoms: _519  and  _520
REMARK  215  A    between atoms: _519  and  _522
REMARK  216  A    between atoms: _522  and  _523
REMARK  217  A    between atoms: _523  and  _524
REMARK  218  A    between atoms: _524  and  _525
REMARK  219  A    between atoms: _534  and  _536
REMARK  220  A    between atoms: _536  and  _537
REMARK  221  A    between atoms: _536  and  _539
REMARK  222  A    between atoms: _539  and  _540
REMARK  223  A    between atoms: _543  and  _545
REMARK  224  A    between atoms: _545  and  _546
REMARK  225  A    between atoms: _545  and  _548
REMARK  226  A    between atoms: _548  and  _549
REMARK  227  A    between atoms: _552  and  _554
REMARK  228  A    between atoms: _554  and  _555
REMARK  229  A    between atoms: _554  and  _557
REMARK  230  A    between atoms: _557  and  _558
REMARK  231  A    between atoms: _563  and  _565
REMARK  232  A    between atoms: _565  and  _566
REMARK  233  A    between atoms: _565  and  _568
REMARK  234  A    between atoms: _568  and  _569
REMARK  235  A    between atoms: _572  and  _574
REMARK  236  A    between atoms: _574  and  _575
REMARK  237  A    between atoms: _578  and  _580
REMARK  238  A    between atoms: _580  and  _581
REMARK  239  A    between atoms: _580  and  _583
REMARK  240  A    between atoms: _583  and  _584
REMARK  241  A    between atoms: _584  and  _585
REMARK  242  A    between atoms: _585  and  _586
REMARK  243  A    between atoms: _586  and  _587
REMARK  244  A    between atoms: _591  and  _593
REMARK  245  A    between atoms: _593  and  _594
REMARK  246  A    between atoms: _593  and  _596
REMARK  247  A    between atoms: _596  and  _597
REMARK  248  A    between atoms: _600  and  _602
REMARK  249  A    between atoms: _602  and  _603
REMARK  250  A    between atoms: _602  and  _605
REMARK  251  A    between atoms: _605  and  _606
REMARK  252  A    between atoms: _609  and  _611
REMARK  253  A    between atoms: _611  and  _612
REMARK  254  A    between atoms: _611  and  _614
REMARK  255  A    between atoms: _614  and  _615
REMARK  256  A    between atoms: _618  and  _620
REMARK  257  A    between atoms: _620  and  _621
REMARK  258  A    between atoms: _620  and  _623
REMARK  259  A    between atoms: _623  and  _624
REMARK  260  A    between atoms: _630  and  _632
REMARK  261  A    between atoms: _632  and  _633
REMARK  262  A    between atoms: _635  and  _637
REMARK  263  A    between atoms: _637  and  _638
REMARK  264  A    between atoms: _637  and  _640
REMARK  265  A    between atoms: _640  and  _641
REMARK  266  A    between atoms: _644  and  _646
REMARK  267  A    between atoms: _646  and  _647
REMARK  268  A    between atoms: _646  and  _649
REMARK  269  A    between atoms: _649  and  _650
REMARK  270  A    between atoms: _653  and  _655
REMARK  271  A    between atoms: _655  and  _656
REMARK  272  A    between atoms: _655  and  _658
REMARK  273  A    between atoms: _658  and  _659
REMARK  274  A    between atoms: _664  and  _665
REMARK  275  A    between atoms: _667  and  _669
REMARK  276  A    between atoms: _669  and  _670
REMARK  277  A    between atoms: _669  and  _672
REMARK  278  A    between atoms: _672  and  _673
REMARK  279  A    between atoms: _673  and  _674
REMARK                            x       y       z     vdW  Elec       q    Type
REMARK                         _______ _______ _______ _____ _____    ______ ____
ROOT
ATOM      1  O   HOH     1      17.004 -10.349   8.942  0.00  0.00    +0.000 OA
ENDROOT
TORSDOF 0
REMARK  Name = ../refined-set-2016/3gcu/3gcu_pocket.pdb
REMARK  279 active torsions:
REMARK  status: ('A' for Active; 'I' for Inactive)
REMARK    1  A    between atoms: _2  and  _3
REMARK    2  A    between atoms: _8  and  _10
REMARK    3  A    between atoms: _10  and  _11
REMARK    4  A    between atoms: _10  and  _13
REMARK    5  A    between atoms: _16  and  _18
REMARK    6  A    between atoms: _18  and  _19
REMARK    7  A    between atoms: _21  and  _23
REMARK    8  A    between atoms: _23  and  _24
REMARK    9  A    between atoms: _23  and  _26
REMARK   10  A    between atoms: _26  and  _27
REMARK   11  A    between atoms: _29  and  _31
REMARK   12  A    between atoms: _31  and  _32
REMARK   13  A    between atoms: _31  and  _34
REMARK   14  A    between atoms: _34  and  _35
REMARK   15  A    between atoms: _40  and  _41
REMARK   16  A    between atoms: _43  and  _45
REMARK   17  A    between atoms: _45  and  _46
REMARK   18  A    between atoms: _45  and  _48
REMARK   19  A    between atoms: _48  and  _49
REMARK   20  A    between atoms: _51  and  _53
REMARK   21  A    between atoms: _53  and  _54
REMARK   22  A    between atoms: _53  and  _56
REMARK   23  A    between atoms: _59  and  _61
REMARK   24  A    between atoms: _61  and  _62
REMARK   25  A    between atoms: _61  and  _64
REMARK   26  A    between atoms: _66  and  _68
REMARK   27  A    between atoms: _68  and  _69
REMARK   28  A    between atoms: _72  and  _74
REMARK   29  A    between atoms: _74  and  _75
REMARK   30  A    between atoms: _78  and  _80
REMARK   31  A    between atoms: _80  and  _81
REMARK   32  A    between atoms: _80  and  _83
REMARK   33  A    between atoms: _83  and  _84
REMARK   34  A    between atoms: _84  and  _85
REMARK   35  A    between atoms: _85  and  _86
REMARK   36  A    between atoms: _95  and  _97
REMARK   37  A    between atoms: _97  and  _98
REMARK   38  A    between atoms: _97  and  _100
REMARK   39  A    between atoms: _103  and  _105
REMARK   40  A    between atoms: _105  and  _106
REMARK   41  A    between atoms: _109  and  _111
REMARK   42  A    between atoms: _111  and  _112
REMARK   43  A    between atoms: _111  and  _114
REMARK   44  A    between atoms: _117  and  _119
REMARK   45  A    between atoms: _119  and  _120
REMARK   46  A    between atoms: _119  and  _122
REMARK   47  A    between atoms: _122  and  _123
REMARK   48  A    between atoms: _123  and  _124
REMARK   49  A    between atoms: _124  and  _125
REMARK   50  A    between atoms: _125  and  _126
REMARK   51  A    between atoms: _130  and  _132
REMARK   52  A    between atoms: _132  and  _133
REMARK   53  A    between atoms: _132  and  _135
REMARK   54  A    between atoms: _135  and  _136
REMARK   55  A    between atoms: _136  and  _137
REMARK   56  A    between atoms: _137  and  _138
REMARK   57  A    between atoms: _138  and  _139
REMARK   58  A    between atoms: _143  and  _145
REMARK   59  A    between atoms: _145  and  _146
REMARK   60  A    between atoms: _145  and  _148
REMARK   61  A    between atoms: _148  and  _149
REMARK   62  A    between atoms: _152  and  _154
REMARK   63  A    between atoms: _154  and  _155
REMARK   64  A    between atoms: _154  and  _157
REMARK   65  A    between atoms: _157  and  _158
REMARK   66  A    between atoms: _161  and  _163
REMARK   67  A    between atoms: _163  and  _164
REMARK   68  A    between atoms: _163  and  _166
REMARK   69  A    between atoms: _166  and  _167
REMARK   70  A    between atoms: _172  and  _174
REMARK   71  A    between atoms: _174  and  _175
REMARK   72  A    between atoms: _174  and  _177
REMARK   73  A    between atoms: _177  and  _178
REMARK   74  A    between atoms: _178  and  _179
REMARK   75  A    between atoms: _179  and  _180
REMARK   76  A    between atoms: _180  and  _181
REMARK   77  A    between atoms: _185  and  _187
REMARK   78  A    between atoms: _187  and  _188
REMARK   79  A    between atoms: _187  and  _190
REMARK   80  A    between atoms: _190  and  _191
REMARK   81  A    between atoms: _191  and  _192
REMARK   82  A    between atoms: _192  and  _193
REMARK   83  A    between atoms: _202  and  _204
REMARK   84  A    between atoms: _204  and  _205
REMARK   85  A    between atoms: _204  and  _207
REMARK   86  A    between atoms: _207  and  _208
REMARK   87  A    between atoms: _211  and  _213
REMARK   88  A    between atoms: _213  and  _214
REMARK   89  A    between atoms: _213  and  _216
REMARK   90  A    between atoms: _216  and  _217
REMARK   91  A    between atoms: _222  and  _223
REMARK   92  A    between atoms: _225  and  _227
REMARK   93  A    between atoms: _227  and  _228
REMARK   94  A    between atoms: _227  and  _230
REMARK   95  A    between atoms: _230  and  _231
REMARK   96  A    between atoms: _231  and  _232
REMARK   97  A    between atoms: _232  and  _233
REMARK   98  A    between atoms: _242  and  _244
REMARK   99  A    between atoms: _244  and  _245
REMARK  100  A    between atoms: _244  and  _247
REMARK  101  A    between atoms: _247  and  _248
REMARK  102  A    between atoms: _248  and  _249
REMARK  103  A    between atoms: _252  and  _254
REMARK  104  A    between atoms: _254  and  _255
REMARK  105  A    between atoms: _254  and  _257
REMARK  106  A    between atoms: _257  and  _258
REMARK  107  A    between atoms: _261  and  _263
REMARK  108  A    between atoms: _263  and  _264
REMARK  109  A    between atoms: _263  and  _266
REMARK  110  A    between atoms: _266  and  _267
REMARK  111  A    between atoms: _267  and  _268
REMARK  112  A    between atoms: _268  and  _269
REMARK  113  A    between atoms: _278  and  _280
REMARK  114  A    between atoms: _280  and  _281
REMARK  115  A    between atoms: _280  and  _283
REMARK  116  A    between atoms: _283  and  _284
REMARK  117  A    between atoms: _287  and  _289
REMARK  118  A    between atoms: _289  and  _290
REMARK  119  A    between atoms: _289  and  _292
REMARK  120  A    between atoms: _292  and  _293
REMARK  121  A    between atoms: _296  and  _298
REMARK  122  A    between atoms: _298  and  _299
REMARK  123  A    between atoms: _298  and  _301
REMARK  124  A    between atoms: _301  and  _302
REMARK  125  A    between atoms: _307  and  _309
REMARK  126  A    between atoms: _309  and  _310
REMARK  127  A    between atoms: _309  and  _312
REMARK  128  A    between atoms: _312  and  _313
REMARK  129  A    between atoms: _313  and  _314
REMARK  130  A    between atoms: _316  and  _318
REMARK  131  A    between atoms: _318  and  _319
REMARK  132  A    between atoms: _318  and  _321
REMARK  133  A    between atoms: _321  and  _322
REMARK  134  A    between atoms: _327  and  _329
REMARK  135  A    between atoms: _329  and  _330
REMARK  136  A    between atoms: _329  and  _332
REMARK  137  A    between atoms: _335  and  _337
REMARK  138  A    between atoms: _337  and  _338
REMARK  139  A    between atoms: _337  and  _340
REMARK  140  A    between atoms: _340  and  _341
REMARK  141  A    between atoms: _344  and  _346
REMARK  142  A    between atoms: _346  and  _347
REMARK  143  A    between atoms: _349  and  _351
REMARK  144  A    between atoms: _351  and  _352
REMARK  145  A    between atoms: _351  and  _354
REMARK  146  A    between atoms: _354  and  _355
REMARK  147  A    between atoms: _358  and  _360
REMARK  148  A    between atoms: _360  and  _361
REMARK  149  A    between atoms: _360  and  _363
REMARK  150  A    between atoms: _363  and  _364
REMARK  151  A    between atoms: _367  and  _369
REMARK  152  A    between atoms: _369  and  _370
REMARK  153  A    between atoms: _369  and  _372
REMARK  154  A    between atoms: _372  and  _373
REMARK  155  A    between atoms: _376  and  _378
REMARK  156  A    between atoms: _378  and  _379
REMARK  157  A    between atoms: _378  and  _381
REMARK  158  A    between atoms: _381  and  _382
REMARK  159  A    between atoms: _387  and  _388
REMARK  160  A    between atoms: _390  and  _392
REMARK  161  A    between atoms: _392  and  _393
REMARK  162  A    between atoms: _392  and  _395
REMARK  163  A    between atoms: _395  and  _396
REMARK  164  A    between atoms: _399  and  _401
REMARK  165  A    between atoms: _401  and  _402
REMARK  166  A    between atoms: _401  and  _404
REMARK  167  A    between atoms: _407  and  _409
REMARK  168  A    between atoms: _409  and  _410
REMARK  169  A    between atoms: _409  and  _412
REMARK  170  A    between atoms: _412  and  _413
REMARK  171  A    between atoms: _416  and  _418
REMARK  172  A    between atoms: _418  and  _419
REMARK  173  A    between atoms: _418  and  _421
REMARK  174  A    between atoms: _421  and  _422
REMARK  175  A    between atoms: _427  and  _429
REMARK  176  A    between atoms: _429  and  _430
REMARK  177  A    between atoms: _429  and  _432
REMARK  178  A    between atoms: _432  and  _433
REMARK  179  A    between atoms: _436  and  _438
REMARK  180  A    between atoms: _438  and  _439
REMARK  181  A    between atoms: _438  and  _441
REMARK  182  A    between atoms: _441  and  _442
REMARK  183  A    between atoms: _442  and  _443
REMARK  184  A    between atoms: _445  and  _447
REMARK  185  A    between atoms: _447  and  _448
REMARK  186  A    between atoms: _450  and  _452
REMARK  187  A    between atoms: _452  and  _453
REMARK  188  A    between atoms: _456  and  _458
REMARK  189  A    between atoms: _458  and  _459
REMARK  190  A    between atoms: _458  and  _461
REMARK  191  A    between atoms: _461  and  _462
REMARK  192  A    between atoms: _465  and  _467
REMARK  193  A    between atoms: _467  and  _468
REMARK  194  A    between atoms: _467  and  _470
REMARK  195  A    between atoms: _470  and  _471
REMARK  196  A    between atoms: _476  and  _477
REMARK  197  A    between atoms: _479  and  _481
REMARK  198  A    between atoms: _481  and  _482
REMARK  199  A    between atoms: _481  and  _484
REMARK  200  A    between atoms: _484  and  _485
REMARK  201  A    between atoms: _488  and  _490
REMARK  202  A    between atoms: _490  and  _491
REMARK  203  A    between atoms: _490  and  _493
REMARK  204  A    between atoms: _493  and  _494
REMARK  205  A    between atoms: _497  and  _499
REMARK  206  A    between atoms: _499  and  _500
REMARK  207  A    between atoms: _499  and  _502
REMARK  208  A    between atoms: _502  and  _503
REMARK  209  A    between atoms: _506  and  _508
REMARK  210  A    between atoms: _508  and  _509
REMARK  211  A    between atoms: _508  and  _511
REMARK  212  A    between atoms: _511  and  _512
REMARK  213  A    between atoms: _517  and  _519
REMARK  214  A    between atoms: _519  and  _520
REMARK  215  A    between atoms: _519  and  _522
REMARK  216  A    between atoms: _522  and  _523
REMARK  217  A    between atoms: _523  and  _524
REMARK  218  A    between atoms: _524  and  _525
REMARK  219  A    between atoms: _534  and  _536
REMARK  220  A    between atoms: _536  and  _537
REMARK  221  A    between atoms: _536  and  _539
REMARK  222  A    between atoms: _539  and  _540
REMARK  223  A    between atoms: _543  and  _545
REMARK  224  A    between atoms: _545  and  _546
REMARK  225  A    between atoms: _545  and  _548
REMARK  226  A    between atoms: _548  and  _549
REMARK  227  A    between atoms: _552  and  _554
REMARK  228  A    between atoms: _554  and  _555
REMARK  229  A    between atoms: _554  and  _557
REMARK  230  A    between atoms: _557  and  _558
REMARK  231  A    between atoms: _563  and  _565
REMARK  232  A    between atoms: _565  and  _566
REMARK  233  A    between atoms: _565  and  _568
REMARK  234  A    between atoms: _568  and  _569
REMARK  235  A    between atoms: _572  and  _574
REMARK  236  A    between atoms: _574  and  _575
REMARK  237  A    between atoms: _578  and  _580
REMARK  238  A    between atoms: _580  and  _581
REMARK  239  A    between atoms: _580  and  _583
REMARK  240  A    between atoms: _583  and  _584
REMARK  241  A    between atoms: _584  and  _585
REMARK  242  A    between atoms: _585  and  _586
REMARK  243  A    between atoms: _586  and  _587
REMARK  244  A    between atoms: _591  and  _593
REMARK  245  A    between atoms: _593  and  _594
REMARK  246  A    between atoms: _593  and  _596
REMARK  247  A    between atoms: _596  and  _597
REMARK  248  A    between atoms: _600  and  _602
REMARK  249  A    between atoms: _602  and  _603
REMARK  250  A    between atoms: _602  and  _605
REMARK  251  A    between atoms: _605  and  _606
REMARK  252  A    between atoms: _609  and  _611
REMARK  253  A    between atoms: _611  and  _612
REMARK  254  A    between atoms: _611  and  _614
REMARK  255  A    between atoms: _614  and  _615
REMARK  256  A    between atoms: _618  and  _620
REMARK  257  A    between atoms: _620  and  _621
REMARK  258  A    between atoms: _620  and  _623
REMARK  259  A    between atoms: _623  and  _624
REMARK  260  A    between atoms: _630  and  _632
REMARK  261  A    between atoms: _632  and  _633
REMARK  262  A    between atoms: _635  and  _637
REMARK  263  A    between atoms: _637  and  _638
REMARK  264  A    between atoms: _637  and  _640
REMARK  265  A    between atoms: _640  and  _641
REMARK  266  A    between atoms: _644  and  _646
REMARK  267  A    between atoms: _646  and  _647
REMARK  268  A    between atoms: _646  and  _649
REMARK  269  A    between atoms: _649  and  _650
REMARK  270  A    between atoms: _653  and  _655
REMARK  271  A    between atoms: _655  and  _656
REMARK  272  A    between atoms: _655  and  _658
REMARK  273  A    between atoms: _658  and  _659
REMARK  274  A    between atoms: _664  and  _665
REMARK  275  A    between atoms: _667  and  _669
REMARK  276  A    between atoms: _669  and  _670
REMARK  277  A    between atoms: _669  and  _672
REMARK  278  A    between atoms: _672  and  _673
REMARK  279  A    between atoms: _673  and  _674
REMARK                            x       y       z     vdW  Elec       q    Type
REMARK                         _______ _______ _______ _____ _____    ______ ____
ROOT
ATOM      1  O   HOH     1      16.249  -5.340  -9.468  0.00  0.00    +0.000 OA
ENDROOT
TORSDOF 0
REMARK  Name = ../refined-set-2016/3gcu/3gcu_pocket.pdb
REMARK  279 active torsions:
REMARK  status: ('A' for Active; 'I' for Inactive)
REMARK    1  A    between atoms: _2  and  _3
REMARK    2  A    between atoms: _8  and  _10
REMARK    3  A    between atoms: _10  and  _11
REMARK    4  A    between atoms: _10  and  _13
REMARK    5  A    between atoms: _16  and  _18
REMARK    6  A    between atoms: _18  and  _19
REMARK    7  A    between atoms: _21  and  _23
REMARK    8  A    between atoms: _23  and  _24
REMARK    9  A    between atoms: _23  and  _26
REMARK   10  A    between atoms: _26  and  _27
REMARK   11  A    between atoms: _29  and  _31
REMARK   12  A    between atoms: _31  and  _32
REMARK   13  A    between atoms: _31  and  _34
REMARK   14  A    between atoms: _34  and  _35
REMARK   15  A    between atoms: _40  and  _41
REMARK   16  A    between atoms: _43  and  _45
REMARK   17  A    between atoms: _45  and  _46
REMARK   18  A    between atoms: _45  and  _48
REMARK   19  A    between atoms: _48  and  _49
REMARK   20  A    between atoms: _51  and  _53
REMARK   21  A    between atoms: _53  and  _54
REMARK   22  A    between atoms: _53  and  _56
REMARK   23  A    between atoms: _59  and  _61
REMARK   24  A    between atoms: _61  and  _62
REMARK   25  A    between atoms: _61  and  _64
REMARK   26  A    between atoms: _66  and  _68
REMARK   27  A    between atoms: _68  and  _69
REMARK   28  A    between atoms: _72  and  _74
REMARK   29  A    between atoms: _74  and  _75
REMARK   30  A    between atoms: _78  and  _80
REMARK   31  A    between atoms: _80  and  _81
REMARK   32  A    between atoms: _80  and  _83
REMARK   33  A    between atoms: _83  and  _84
REMARK   34  A    between atoms: _84  and  _85
REMARK   35  A    between atoms: _85  and  _86
REMARK   36  A    between atoms: _95  and  _97
REMARK   37  A    between atoms: _97  and  _98
REMARK   38  A    between atoms: _97  and  _100
REMARK   39  A    between atoms: _103  and  _105
REMARK   40  A    between atoms: _105  and  _106
REMARK   41  A    between atoms: _109  and  _111
REMARK   42  A    between atoms: _111  and  _112
REMARK   43  A    between atoms: _111  and  _114
REMARK   44  A    between atoms: _117  and  _119
REMARK   45  A    between atoms: _119  and  _120
REMARK   46  A    between atoms: _119  and  _122
REMARK   47  A    between atoms: _122  and  _123
REMARK   48  A    between atoms: _123  and  _124
REMARK   49  A    between atoms: _124  and  _125
REMARK   50  A    between atoms: _125  and  _126
REMARK   51  A    between atoms: _130  and  _132
REMARK   52  A    between atoms: _132  and  _133
REMARK   53  A    between atoms: _132  and  _135
REMARK   54  A    between atoms: _135  and  _136
REMARK   55  A    between atoms: _136  and  _137
REMARK   56  A    between atoms: _137  and  _138
REMARK   57  A    between atoms: _138  and  _139
REMARK   58  A    between atoms: _143  and  _145
REMARK   59  A    between atoms: _145  and  _146
REMARK   60  A    between atoms: _145  and  _148
REMARK   61  A    between atoms: _148  and  _149
REMARK   62  A    between atoms: _152  and  _154
REMARK   63  A    between atoms: _154  and  _155
REMARK   64  A    between atoms: _154  and  _157
REMARK   65  A    between atoms: _157  and  _158
REMARK   66  A    between atoms: _161  and  _163
REMARK   67  A    between atoms: _163  and  _164
REMARK   68  A    between atoms: _163  and  _166
REMARK   69  A    between atoms: _166  and  _167
REMARK   70  A    between atoms: _172  and  _174
REMARK   71  A    between atoms: _174  and  _175
REMARK   72  A    between atoms: _174  and  _177
REMARK   73  A    between atoms: _177  and  _178
REMARK   74  A    between atoms: _178  and  _179
REMARK   75  A    between atoms: _179  and  _180
REMARK   76  A    between atoms: _180  and  _181
REMARK   77  A    between atoms: _185  and  _187
REMARK   78  A    between atoms: _187  and  _188
REMARK   79  A    between atoms: _187  and  _190
REMARK   80  A    between atoms: _190  and  _191
REMARK   81  A    between atoms: _191  and  _192
REMARK   82  A    between atoms: _192  and  _193
REMARK   83  A    between atoms: _202  and  _204
REMARK   84  A    between atoms: _204  and  _205
REMARK   85  A    between atoms: _204  and  _207
REMARK   86  A    between atoms: _207  and  _208
REMARK   87  A    between atoms: _211  and  _213
REMARK   88  A    between atoms: _213  and  _214
REMARK   89  A    between atoms: _213  and  _216
REMARK   90  A    between atoms: _216  and  _217
REMARK   91  A    between atoms: _222  and  _223
REMARK   92  A    between atoms: _225  and  _227
REMARK   93  A    between atoms: _227  and  _228
REMARK   94  A    between atoms: _227  and  _230
REMARK   95  A    between atoms: _230  and  _231
REMARK   96  A    between atoms: _231  and  _232
REMARK   97  A    between atoms: _232  and  _233
REMARK   98  A    between atoms: _242  and  _244
REMARK   99  A    between atoms: _244  and  _245
REMARK  100  A    between atoms: _244  and  _247
REMARK  101  A    between atoms: _247  and  _248
REMARK  102  A    between atoms: _248  and  _249
REMARK  103  A    between atoms: _252  and  _254
REMARK  104  A    between atoms: _254  and  _255
REMARK  105  A    between atoms: _254  and  _257
REMARK  106  A    between atoms: _257  and  _258
REMARK  107  A    between atoms: _261  and  _263
REMARK  108  A    between atoms: _263  and  _264
REMARK  109  A    between atoms: _263  and  _266
REMARK  110  A    between atoms: _266  and  _267
REMARK  111  A    between atoms: _267  and  _268
REMARK  112  A    between atoms: _268  and  _269
REMARK  113  A    between atoms: _278  and  _280
REMARK  114  A    between atoms: _280  and  _281
REMARK  115  A    between atoms: _280  and  _283
REMARK  116  A    between atoms: _283  and  _284
REMARK  117  A    between atoms: _287  and  _289
REMARK  118  A    between atoms: _289  and  _290
REMARK  119  A    between atoms: _289  and  _292
REMARK  120  A    between atoms: _292  and  _293
REMARK  121  A    between atoms: _296  and  _298
REMARK  122  A    between atoms: _298  and  _299
REMARK  123  A    between atoms: _298  and  _301
REMARK  124  A    between atoms: _301  and  _302
REMARK  125  A    between atoms: _307  and  _309
REMARK  126  A    between atoms: _309  and  _310
REMARK  127  A    between atoms: _309  and  _312
REMARK  128  A    between atoms: _312  and  _313
REMARK  129  A    between atoms: _313  and  _314
REMARK  130  A    between atoms: _316  and  _318
REMARK  131  A    between atoms: _318  and  _319
REMARK  132  A    between atoms: _318  and  _321
REMARK  133  A    between atoms: _321  and  _322
REMARK  134  A    between atoms: _327  and  _329
REMARK  135  A    between atoms: _329  and  _330
REMARK  136  A    between atoms: _329  and  _332
REMARK  137  A    between atoms: _335  and  _337
REMARK  138  A    between atoms: _337  and  _338
REMARK  139  A    between atoms: _337  and  _340
REMARK  140  A    between atoms: _340  and  _341
REMARK  141  A    between atoms: _344  and  _346
REMARK  142  A    between atoms: _346  and  _347
REMARK  143  A    between atoms: _349  and  _351
REMARK  144  A    between atoms: _351  and  _352
REMARK  145  A    between atoms: _351  and  _354
REMARK  146  A    between atoms: _354  and  _355
REMARK  147  A    between atoms: _358  and  _360
REMARK  148  A    between atoms: _360  and  _361
REMARK  149  A    between atoms: _360  and  _363
REMARK  150  A    between atoms: _363  and  _364
REMARK  151  A    between atoms: _367  and  _369
REMARK  152  A    between atoms: _369  and  _370
REMARK  153  A    between atoms: _369  and  _372
REMARK  154  A    between atoms: _372  and  _373
REMARK  155  A    between atoms: _376  and  _378
REMARK  156  A    between atoms: _378  and  _379
REMARK  157  A    between atoms: _378  and  _381
REMARK  158  A    between atoms: _381  and  _382
REMARK  159  A    between atoms: _387  and  _388
REMARK  160  A    between atoms: _390  and  _392
REMARK  161  A    between atoms: _392  and  _393
REMARK  162  A    between atoms: _392  and  _395
REMARK  163  A    between atoms: _395  and  _396
REMARK  164  A    between atoms: _399  and  _401
REMARK  165  A    between atoms: _401  and  _402
REMARK  166  A    between atoms: _401  and  _404
REMARK  167  A    between atoms: _407  and  _409
REMARK  168  A    between atoms: _409  and  _410
REMARK  169  A    between atoms: _409  and  _412
REMARK  170  A    between atoms: _412  and  _413
REMARK  171  A    between atoms: _416  and  _418
REMARK  172  A    between atoms: _418  and  _419
REMARK  173  A    between atoms: _418  and  _421
REMARK  174  A    between atoms: _421  and  _422
REMARK  175  A    between atoms: _427  and  _429
REMARK  176  A    between atoms: _429  and  _430
REMARK  177  A    between atoms: _429  and  _432
REMARK  178  A    between atoms: _432  and  _433
REMARK  179  A    between atoms: _436  and  _438
REMARK  180  A    between atoms: _438  and  _439
REMARK  181  A    between atoms: _438  and  _441
REMARK  182  A    between atoms: _441  and  _442
REMARK  183  A    between atoms: _442  and  _443
REMARK  184  A    between atoms: _445  and  _447
REMARK  185  A    between atoms: _447  and  _448
REMARK  186  A    between atoms: _450  and  _452
REMARK  187  A    between atoms: _452  and  _453
REMARK  188  A    between atoms: _456  and  _458
REMARK  189  A    between atoms: _458  and  _459
REMARK  190  A    between atoms: _458  and  _461
REMARK  191  A    between atoms: _461  and  _462
REMARK  192  A    between atoms: _465  and  _467
REMARK  193  A    between atoms: _467  and  _468
REMARK  194  A    between atoms: _467  and  _470
REMARK  195  A    between atoms: _470  and  _471
REMARK  196  A    between atoms: _476  and  _477
REMARK  197  A    between atoms: _479  and  _481
REMARK  198  A    between atoms: _481  and  _482
REMARK  199  A    between atoms: _481  and  _484
REMARK  200  A    between atoms: _484  and  _485
REMARK  201  A    between atoms: _488  and  _490
REMARK  202  A    between atoms: _490  and  _491
REMARK  203  A    between atoms: _490  and  _493
REMARK  204  A    between atoms: _493  and  _494
REMARK  205  A    between atoms: _497  and  _499
REMARK  206  A    between atoms: _499  and  _500
REMARK  207  A    between atoms: _499  and  _502
REMARK  208  A    between atoms: _502  and  _503
REMARK  209  A    between atoms: _506  and  _508
REMARK  210  A    between atoms: _508  and  _509
REMARK  211  A    between atoms: _508  and  _511
REMARK  212  A    between atoms: _511  and  _512
REMARK  213  A    between atoms: _517  and  _519
REMARK  214  A    between atoms: _519  and  _520
REMARK  215  A    between atoms: _519  and  _522
REMARK  216  A    between atoms: _522  and  _523
REMARK  217  A    between atoms: _523  and  _524
REMARK  218  A    between atoms: _524  and  _525
REMARK  219  A    between atoms: _534  and  _536
REMARK  220  A    between atoms: _536  and  _537
REMARK  221  A    between atoms: _536  and  _539
REMARK  222  A    between atoms: _539  and  _540
REMARK  223  A    between atoms: _543  and  _545
REMARK  224  A    between atoms: _545  and  _546
REMARK  225  A    between atoms: _545  and  _548
REMARK  226  A    between atoms: _548  and  _549
REMARK  227  A    between atoms: _552  and  _554
REMARK  228  A    between atoms: _554  and  _555
REMARK  229  A    between atoms: _554  and  _557
REMARK  230  A    between atoms: _557  and  _558
REMARK  231  A    between atoms: _563  and  _565
REMARK  232  A    between atoms: _565  and  _566
REMARK  233  A    between atoms: _565  and  _568
REMARK  234  A    between atoms: _568  and  _569
REMARK  235  A    between atoms: _572  and  _574
REMARK  236  A    between atoms: _574  and  _575
REMARK  237  A    between atoms: _578  and  _580
REMARK  238  A    between atoms: _580  and  _581
REMARK  239  A    between atoms: _580  and  _583
REMARK  240  A    between atoms: _583  and  _584
REMARK  241  A    between atoms: _584  and  _585
REMARK  242  A    between atoms: _585  and  _586
REMARK  243  A    between atoms: _586  and  _587
REMARK  244  A    between atoms: _591  and  _593
REMARK  245  A    between atoms: _593  and  _594
REMARK  246  A    between atoms: _593  and  _596
REMARK  247  A    between atoms: _596  and  _597
REMARK  248  A    between atoms: _600  and  _602
REMARK  249  A    between atoms: _602  and  _603
REMARK  250  A    between atoms: _602  and  _605
REMARK  251  A    between atoms: _605  and  _606
REMARK  252  A    between atoms: _609  and  _611
REMARK  253  A    between atoms: _611  and  _612
REMARK  254  A    between atoms: _611  and  _614
REMARK  255  A    between atoms: _614  and  _615
REMARK  256  A    between atoms: _618  and  _620
REMARK  257  A    between atoms: _620  and  _621
REMARK  258  A    between atoms: _620  and  _623
REMARK  259  A    between atoms: _623  and  _624
REMARK  260  A    between atoms: _630  and  _632
REMARK  261  A    between atoms: _632  and  _633
REMARK  262  A    between atoms: _635  and  _637
REMARK  263  A    between atoms: _637  and  _638
REMARK  264  A    between atoms: _637  and  _640
REMARK  265  A    between atoms: _640  and  _641
REMARK  266  A    between atoms: _644  and  _646
REMARK  267  A    between atoms: _646  and  _647
REMARK  268  A    between atoms: _646  and  _649
REMARK  269  A    between atoms: _649  and  _650
REMARK  270  A    between atoms: _653  and  _655
REMARK  271  A    between atoms: _655  and  _656
REMARK  272  A    between atoms: _655  and  _658
REMARK  273  A    between atoms: _658  and  _659
REMARK  274  A    between atoms: _664  and  _665
REMARK  275  A    between atoms: _667  and  _669
REMARK  276  A    between atoms: _669  and  _670
REMARK  277  A    between atoms: _669  and  _672
REMARK  278  A    between atoms: _672  and  _673
REMARK  279  A    between atoms: _673  and  _674
REMARK                            x       y       z     vdW  Elec       q    Type
REMARK                         _______ _______ _______ _____ _____    ______ ____
ROOT
ATOM      1  O   HOH     1      20.279  -7.869  -3.433  0.00  0.00    +0.000 OA
ENDROOT
TORSDOF 0
REMARK  Name = ../refined-set-2016/3gcu/3gcu_pocket.pdb
REMARK  279 active torsions:
REMARK  status: ('A' for Active; 'I' for Inactive)
REMARK    1  A    between atoms: _2  and  _3
REMARK    2  A    between atoms: _8  and  _10
REMARK    3  A    between atoms: _10  and  _11
REMARK    4  A    between atoms: _10  and  _13
REMARK    5  A    between atoms: _16  and  _18
REMARK    6  A    between atoms: _18  and  _19
REMARK    7  A    between atoms: _21  and  _23
REMARK    8  A    between atoms: _23  and  _24
REMARK    9  A    between atoms: _23  and  _26
REMARK   10  A    between atoms: _26  and  _27
REMARK   11  A    between atoms: _29  and  _31
REMARK   12  A    between atoms: _31  and  _32
REMARK   13  A    between atoms: _31  and  _34
REMARK   14  A    between atoms: _34  and  _35
REMARK   15  A    between atoms: _40  and  _41
REMARK   16  A    between atoms: _43  and  _45
REMARK   17  A    between atoms: _45  and  _46
REMARK   18  A    between atoms: _45  and  _48
REMARK   19  A    between atoms: _48  and  _49
REMARK   20  A    between atoms: _51  and  _53
REMARK   21  A    between atoms: _53  and  _54
REMARK   22  A    between atoms: _53  and  _56
REMARK   23  A    between atoms: _59  and  _61
REMARK   24  A    between atoms: _61  and  _62
REMARK   25  A    between atoms: _61  and  _64
REMARK   26  A    between atoms: _66  and  _68
REMARK   27  A    between atoms: _68  and  _69
REMARK   28  A    between atoms: _72  and  _74
REMARK   29  A    between atoms: _74  and  _75
REMARK   30  A    between atoms: _78  and  _80
REMARK   31  A    between atoms: _80  and  _81
REMARK   32  A    between atoms: _80  and  _83
REMARK   33  A    between atoms: _83  and  _84
REMARK   34  A    between atoms: _84  and  _85
REMARK   35  A    between atoms: _85  and  _86
REMARK   36  A    between atoms: _95  and  _97
REMARK   37  A    between atoms: _97  and  _98
REMARK   38  A    between atoms: _97  and  _100
REMARK   39  A    between atoms: _103  and  _105
REMARK   40  A    between atoms: _105  and  _106
REMARK   41  A    between atoms: _109  and  _111
REMARK   42  A    between atoms: _111  and  _112
REMARK   43  A    between atoms: _111  and  _114
REMARK   44  A    between atoms: _117  and  _119
REMARK   45  A    between atoms: _119  and  _120
REMARK   46  A    between atoms: _119  and  _122
REMARK   47  A    between atoms: _122  and  _123
REMARK   48  A    between atoms: _123  and  _124
REMARK   49  A    between atoms: _124  and  _125
REMARK   50  A    between atoms: _125  and  _126
REMARK   51  A    between atoms: _130  and  _132
REMARK   52  A    between atoms: _132  and  _133
REMARK   53  A    between atoms: _132  and  _135
REMARK   54  A    between atoms: _135  and  _136
REMARK   55  A    between atoms: _136  and  _137
REMARK   56  A    between atoms: _137  and  _138
REMARK   57  A    between atoms: _138  and  _139
REMARK   58  A    between atoms: _143  and  _145
REMARK   59  A    between atoms: _145  and  _146
REMARK   60  A    between atoms: _145  and  _148
REMARK   61  A    between atoms: _148  and  _149
REMARK   62  A    between atoms: _152  and  _154
REMARK   63  A    between atoms: _154  and  _155
REMARK   64  A    between atoms: _154  and  _157
REMARK   65  A    between atoms: _157  and  _158
REMARK   66  A    between atoms: _161  and  _163
REMARK   67  A    between atoms: _163  and  _164
REMARK   68  A    between atoms: _163  and  _166
REMARK   69  A    between atoms: _166  and  _167
REMARK   70  A    between atoms: _172  and  _174
REMARK   71  A    between atoms: _174  and  _175
REMARK   72  A    between atoms: _174  and  _177
REMARK   73  A    between atoms: _177  and  _178
REMARK   74  A    between atoms: _178  and  _179
REMARK   75  A    between atoms: _179  and  _180
REMARK   76  A    between atoms: _180  and  _181
REMARK   77  A    between atoms: _185  and  _187
REMARK   78  A    between atoms: _187  and  _188
REMARK   79  A    between atoms: _187  and  _190
REMARK   80  A    between atoms: _190  and  _191
REMARK   81  A    between atoms: _191  and  _192
REMARK   82  A    between atoms: _192  and  _193
REMARK   83  A    between atoms: _202  and  _204
REMARK   84  A    between atoms: _204  and  _205
REMARK   85  A    between atoms: _204  and  _207
REMARK   86  A    between atoms: _207  and  _208
REMARK   87  A    between atoms: _211  and  _213
REMARK   88  A    between atoms: _213  and  _214
REMARK   89  A    between atoms: _213  and  _216
REMARK   90  A    between atoms: _216  and  _217
REMARK   91  A    between atoms: _222  and  _223
REMARK   92  A    between atoms: _225  and  _227
REMARK   93  A    between atoms: _227  and  _228
REMARK   94  A    between atoms: _227  and  _230
REMARK   95  A    between atoms: _230  and  _231
REMARK   96  A    between atoms: _231  and  _232
REMARK   97  A    between atoms: _232  and  _233
REMARK   98  A    between atoms: _242  and  _244
REMARK   99  A    between atoms: _244  and  _245
REMARK  100  A    between atoms: _244  and  _247
REMARK  101  A    between atoms: _247  and  _248
REMARK  102  A    between atoms: _248  and  _249
REMARK  103  A    between atoms: _252  and  _254
REMARK  104  A    between atoms: _254  and  _255
REMARK  105  A    between atoms: _254  and  _257
REMARK  106  A    between atoms: _257  and  _258
REMARK  107  A    between atoms: _261  and  _263
REMARK  108  A    between atoms: _263  and  _264
REMARK  109  A    between atoms: _263  and  _266
REMARK  110  A    between atoms: _266  and  _267
REMARK  111  A    between atoms: _267  and  _268
REMARK  112  A    between atoms: _268  and  _269
REMARK  113  A    between atoms: _278  and  _280
REMARK  114  A    between atoms: _280  and  _281
REMARK  115  A    between atoms: _280  and  _283
REMARK  116  A    between atoms: _283  and  _284
REMARK  117  A    between atoms: _287  and  _289
REMARK  118  A    between atoms: _289  and  _290
REMARK  119  A    between atoms: _289  and  _292
REMARK  120  A    between atoms: _292  and  _293
REMARK  121  A    between atoms: _296  and  _298
REMARK  122  A    between atoms: _298  and  _299
REMARK  123  A    between atoms: _298  and  _301
REMARK  124  A    between atoms: _301  and  _302
REMARK  125  A    between atoms: _307  and  _309
REMARK  126  A    between atoms: _309  and  _310
REMARK  127  A    between atoms: _309  and  _312
REMARK  128  A    between atoms: _312  and  _313
REMARK  129  A    between atoms: _313  and  _314
REMARK  130  A    between atoms: _316  and  _318
REMARK  131  A    between atoms: _318  and  _319
REMARK  132  A    between atoms: _318  and  _321
REMARK  133  A    between atoms: _321  and  _322
REMARK  134  A    between atoms: _327  and  _329
REMARK  135  A    between atoms: _329  and  _330
REMARK  136  A    between atoms: _329  and  _332
REMARK  137  A    between atoms: _335  and  _337
REMARK  138  A    between atoms: _337  and  _338
REMARK  139  A    between atoms: _337  and  _340
REMARK  140  A    between atoms: _340  and  _341
REMARK  141  A    between atoms: _344  and  _346
REMARK  142  A    between atoms: _346  and  _347
REMARK  143  A    between atoms: _349  and  _351
REMARK  144  A    between atoms: _351  and  _352
REMARK  145  A    between atoms: _351  and  _354
REMARK  146  A    between atoms: _354  and  _355
REMARK  147  A    between atoms: _358  and  _360
REMARK  148  A    between atoms: _360  and  _361
REMARK  149  A    between atoms: _360  and  _363
REMARK  150  A    between atoms: _363  and  _364
REMARK  151  A    between atoms: _367  and  _369
REMARK  152  A    between atoms: _369  and  _370
REMARK  153  A    between atoms: _369  and  _372
REMARK  154  A    between atoms: _372  and  _373
REMARK  155  A    between atoms: _376  and  _378
REMARK  156  A    between atoms: _378  and  _379
REMARK  157  A    between atoms: _378  and  _381
REMARK  158  A    between atoms: _381  and  _382
REMARK  159  A    between atoms: _387  and  _388
REMARK  160  A    between atoms: _390  and  _392
REMARK  161  A    between atoms: _392  and  _393
REMARK  162  A    between atoms: _392  and  _395
REMARK  163  A    between atoms: _395  and  _396
REMARK  164  A    between atoms: _399  and  _401
REMARK  165  A    between atoms: _401  and  _402
REMARK  166  A    between atoms: _401  and  _404
REMARK  167  A    between atoms: _407  and  _409
REMARK  168  A    between atoms: _409  and  _410
REMARK  169  A    between atoms: _409  and  _412
REMARK  170  A    between atoms: _412  and  _413
REMARK  171  A    between atoms: _416  and  _418
REMARK  172  A    between atoms: _418  and  _419
REMARK  173  A    between atoms: _418  and  _421
REMARK  174  A    between atoms: _421  and  _422
REMARK  175  A    between atoms: _427  and  _429
REMARK  176  A    between atoms: _429  and  _430
REMARK  177  A    between atoms: _429  and  _432
REMARK  178  A    between atoms: _432  and  _433
REMARK  179  A    between atoms: _436  and  _438
REMARK  180  A    between atoms: _438  and  _439
REMARK  181  A    between atoms: _438  and  _441
REMARK  182  A    between atoms: _441  and  _442
REMARK  183  A    between atoms: _442  and  _443
REMARK  184  A    between atoms: _445  and  _447
REMARK  185  A    between atoms: _447  and  _448
REMARK  186  A    between atoms: _450  and  _452
REMARK  187  A    between atoms: _452  and  _453
REMARK  188  A    between atoms: _456  and  _458
REMARK  189  A    between atoms: _458  and  _459
REMARK  190  A    between atoms: _458  and  _461
REMARK  191  A    between atoms: _461  and  _462
REMARK  192  A    between atoms: _465  and  _467
REMARK  193  A    between atoms: _467  and  _468
REMARK  194  A    between atoms: _467  and  _470
REMARK  195  A    between atoms: _470  and  _471
REMARK  196  A    between atoms: _476  and  _477
REMARK  197  A    between atoms: _479  and  _481
REMARK  198  A    between atoms: _481  and  _482
REMARK  199  A    between atoms: _481  and  _484
REMARK  200  A    between atoms: _484  and  _485
REMARK  201  A    between atoms: _488  and  _490
REMARK  202  A    between atoms: _490  and  _491
REMARK  203  A    between atoms: _490  and  _493
REMARK  204  A    between atoms: _493  and  _494
REMARK  205  A    between atoms: _497  and  _499
REMARK  206  A    between atoms: _499  and  _500
REMARK  207  A    between atoms: _499  and  _502
REMARK  208  A    between atoms: _502  and  _503
REMARK  209  A    between atoms: _506  and  _508
REMARK  210  A    between atoms: _508  and  _509
REMARK  211  A    between atoms: _508  and  _511
REMARK  212  A    between atoms: _511  and  _512
REMARK  213  A    between atoms: _517  and  _519
REMARK  214  A    between atoms: _519  and  _520
REMARK  215  A    between atoms: _519  and  _522
REMARK  216  A    between atoms: _522  and  _523
REMARK  217  A    between atoms: _523  and  _524
REMARK  218  A    between atoms: _524  and  _525
REMARK  219  A    between atoms: _534  and  _536
REMARK  220  A    between atoms: _536  and  _537
REMARK  221  A    between atoms: _536  and  _539
REMARK  222  A    between atoms: _539  and  _540
REMARK  223  A    between atoms: _543  and  _545
REMARK  224  A    between atoms: _545  and  _546
REMARK  225  A    between atoms: _545  and  _548
REMARK  226  A    between atoms: _548  and  _549
REMARK  227  A    between atoms: _552  and  _554
REMARK  228  A    between atoms: _554  and  _555
REMARK  229  A    between atoms: _554  and  _557
REMARK  230  A    between atoms: _557  and  _558
REMARK  231  A    between atoms: _563  and  _565
REMARK  232  A    between atoms: _565  and  _566
REMARK  233  A    between atoms: _565  and  _568
REMARK  234  A    between atoms: _568  and  _569
REMARK  235  A    between atoms: _572  and  _574
REMARK  236  A    between atoms: _574  and  _575
REMARK  237  A    between atoms: _578  and  _580
REMARK  238  A    between atoms: _580  and  _581
REMARK  239  A    between atoms: _580  and  _583
REMARK  240  A    between atoms: _583  and  _584
REMARK  241  A    between atoms: _584  and  _585
REMARK  242  A    between atoms: _585  and  _586
REMARK  243  A    between atoms: _586  and  _587
REMARK  244  A    between atoms: _591  and  _593
REMARK  245  A    between atoms: _593  and  _594
REMARK  246  A    between atoms: _593  and  _596
REMARK  247  A    between atoms: _596  and  _597
REMARK  248  A    between atoms: _600  and  _602
REMARK  249  A    between atoms: _602  and  _603
REMARK  250  A    between atoms: _602  and  _605
REMARK  251  A    between atoms: _605  and  _606
REMARK  252  A    between atoms: _609  and  _611
REMARK  253  A    between atoms: _611  and  _612
REMARK  254  A    between atoms: _611  and  _614
REMARK  255  A    between atoms: _614  and  _615
REMARK  256  A    between atoms: _618  and  _620
REMARK  257  A    between atoms: _620  and  _621
REMARK  258  A    between atoms: _620  and  _623
REMARK  259  A    between atoms: _623  and  _624
REMARK  260  A    between atoms: _630  and  _632
REMARK  261  A    between atoms: _632  and  _633
REMARK  262  A    between atoms: _635  and  _637
REMARK  263  A    between atoms: _637  and  _638
REMARK  264  A    between atoms: _637  and  _640
REMARK  265  A    between atoms: _640  and  _641
REMARK  266  A    between atoms: _644  and  _646
REMARK  267  A    between atoms: _646  and  _647
REMARK  268  A    between atoms: _646  and  _649
REMARK  269  A    between atoms: _649  and  _650
REMARK  270  A    between atoms: _653  and  _655
REMARK  271  A    between atoms: _655  and  _656
REMARK  272  A    between atoms: _655  and  _658
REMARK  273  A    between atoms: _658  and  _659
REMARK  274  A    between atoms: _664  and  _665
REMARK  275  A    between atoms: _667  and  _669
REMARK  276  A    between atoms: _669  and  _670
REMARK  277  A    between atoms: _669  and  _672
REMARK  278  A    between atoms: _672  and  _673
REMARK  279  A    between atoms: _673  and  _674
REMARK                            x       y       z     vdW  Elec       q    Type
REMARK                         _______ _______ _______ _____ _____    ______ ____
ROOT
ATOM      1  O   HOH     1      11.967  -4.546 -11.175  0.00  0.00    +0.000 OA
ENDROOT
TORSDOF 0
REMARK  Name = ../refined-set-2016/3gcu/3gcu_pocket.pdb
REMARK  279 active torsions:
REMARK  status: ('A' for Active; 'I' for Inactive)
REMARK    1  A    between atoms: _2  and  _3
REMARK    2  A    between atoms: _8  and  _10
REMARK    3  A    between atoms: _10  and  _11
REMARK    4  A    between atoms: _10  and  _13
REMARK    5  A    between atoms: _16  and  _18
REMARK    6  A    between atoms: _18  and  _19
REMARK    7  A    between atoms: _21  and  _23
REMARK    8  A    between atoms: _23  and  _24
REMARK    9  A    between atoms: _23  and  _26
REMARK   10  A    between atoms: _26  and  _27
REMARK   11  A    between atoms: _29  and  _31
REMARK   12  A    between atoms: _31  and  _32
REMARK   13  A    between atoms: _31  and  _34
REMARK   14  A    between atoms: _34  and  _35
REMARK   15  A    between atoms: _40  and  _41
REMARK   16  A    between atoms: _43  and  _45
REMARK   17  A    between atoms: _45  and  _46
REMARK   18  A    between atoms: _45  and  _48
REMARK   19  A    between atoms: _48  and  _49
REMARK   20  A    between atoms: _51  and  _53
REMARK   21  A    between atoms: _53  and  _54
REMARK   22  A    between atoms: _53  and  _56
REMARK   23  A    between atoms: _59  and  _61
REMARK   24  A    between atoms: _61  and  _62
REMARK   25  A    between atoms: _61  and  _64
REMARK   26  A    between atoms: _66  and  _68
REMARK   27  A    between atoms: _68  and  _69
REMARK   28  A    between atoms: _72  and  _74
REMARK   29  A    between atoms: _74  and  _75
REMARK   30  A    between atoms: _78  and  _80
REMARK   31  A    between atoms: _80  and  _81
REMARK   32  A    between atoms: _80  and  _83
REMARK   33  A    between atoms: _83  and  _84
REMARK   34  A    between atoms: _84  and  _85
REMARK   35  A    between atoms: _85  and  _86
REMARK   36  A    between atoms: _95  and  _97
REMARK   37  A    between atoms: _97  and  _98
REMARK   38  A    between atoms: _97  and  _100
REMARK   39  A    between atoms: _103  and  _105
REMARK   40  A    between atoms: _105  and  _106
REMARK   41  A    between atoms: _109  and  _111
REMARK   42  A    between atoms: _111  and  _112
REMARK   43  A    between atoms: _111  and  _114
REMARK   44  A    between atoms: _117  and  _119
REMARK   45  A    between atoms: _119  and  _120
REMARK   46  A    between atoms: _119  and  _122
REMARK   47  A    between atoms: _122  and  _123
REMARK   48  A    between atoms: _123  and  _124
REMARK   49  A    between atoms: _124  and  _125
REMARK   50  A    between atoms: _125  and  _126
REMARK   51  A    between atoms: _130  and  _132
REMARK   52  A    between atoms: _132  and  _133
REMARK   53  A    between atoms: _132  and  _135
REMARK   54  A    between atoms: _135  and  _136
REMARK   55  A    between atoms: _136  and  _137
REMARK   56  A    between atoms: _137  and  _138
REMARK   57  A    between atoms: _138  and  _139
REMARK   58  A    between atoms: _143  and  _145
REMARK   59  A    between atoms: _145  and  _146
REMARK   60  A    between atoms: _145  and  _148
REMARK   61  A    between atoms: _148  and  _149
REMARK   62  A    between atoms: _152  and  _154
REMARK   63  A    between atoms: _154  and  _155
REMARK   64  A    between atoms: _154  and  _157
REMARK   65  A    between atoms: _157  and  _158
REMARK   66  A    between atoms: _161  and  _163
REMARK   67  A    between atoms: _163  and  _164
REMARK   68  A    between atoms: _163  and  _166
REMARK   69  A    between atoms: _166  and  _167
REMARK   70  A    between atoms: _172  and  _174
REMARK   71  A    between atoms: _174  and  _175
REMARK   72  A    between atoms: _174  and  _177
REMARK   73  A    between atoms: _177  and  _178
REMARK   74  A    between atoms: _178  and  _179
REMARK   75  A    between atoms: _179  and  _180
REMARK   76  A    between atoms: _180  and  _181
REMARK   77  A    between atoms: _185  and  _187
REMARK   78  A    between atoms: _187  and  _188
REMARK   79  A    between atoms: _187  and  _190
REMARK   80  A    between atoms: _190  and  _191
REMARK   81  A    between atoms: _191  and  _192
REMARK   82  A    between atoms: _192  and  _193
REMARK   83  A    between atoms: _202  and  _204
REMARK   84  A    between atoms: _204  and  _205
REMARK   85  A    between atoms: _204  and  _207
REMARK   86  A    between atoms: _207  and  _208
REMARK   87  A    between atoms: _211  and  _213
REMARK   88  A    between atoms: _213  and  _214
REMARK   89  A    between atoms: _213  and  _216
REMARK   90  A    between atoms: _216  and  _217
REMARK   91  A    between atoms: _222  and  _223
REMARK   92  A    between atoms: _225  and  _227
REMARK   93  A    between atoms: _227  and  _228
REMARK   94  A    between atoms: _227  and  _230
REMARK   95  A    between atoms: _230  and  _231
REMARK   96  A    between atoms: _231  and  _232
REMARK   97  A    between atoms: _232  and  _233
REMARK   98  A    between atoms: _242  and  _244
REMARK   99  A    between atoms: _244  and  _245
REMARK  100  A    between atoms: _244  and  _247
REMARK  101  A    between atoms: _247  and  _248
REMARK  102  A    between atoms: _248  and  _249
REMARK  103  A    between atoms: _252  and  _254
REMARK  104  A    between atoms: _254  and  _255
REMARK  105  A    between atoms: _254  and  _257
REMARK  106  A    between atoms: _257  and  _258
REMARK  107  A    between atoms: _261  and  _263
REMARK  108  A    between atoms: _263  and  _264
REMARK  109  A    between atoms: _263  and  _266
REMARK  110  A    between atoms: _266  and  _267
REMARK  111  A    between atoms: _267  and  _268
REMARK  112  A    between atoms: _268  and  _269
REMARK  113  A    between atoms: _278  and  _280
REMARK  114  A    between atoms: _280  and  _281
REMARK  115  A    between atoms: _280  and  _283
REMARK  116  A    between atoms: _283  and  _284
REMARK  117  A    between atoms: _287  and  _289
REMARK  118  A    between atoms: _289  and  _290
REMARK  119  A    between atoms: _289  and  _292
REMARK  120  A    between atoms: _292  and  _293
REMARK  121  A    between atoms: _296  and  _298
REMARK  122  A    between atoms: _298  and  _299
REMARK  123  A    between atoms: _298  and  _301
REMARK  124  A    between atoms: _301  and  _302
REMARK  125  A    between atoms: _307  and  _309
REMARK  126  A    between atoms: _309  and  _310
REMARK  127  A    between atoms: _309  and  _312
REMARK  128  A    between atoms: _312  and  _313
REMARK  129  A    between atoms: _313  and  _314
REMARK  130  A    between atoms: _316  and  _318
REMARK  131  A    between atoms: _318  and  _319
REMARK  132  A    between atoms: _318  and  _321
REMARK  133  A    between atoms: _321  and  _322
REMARK  134  A    between atoms: _327  and  _329
REMARK  135  A    between atoms: _329  and  _330
REMARK  136  A    between atoms: _329  and  _332
REMARK  137  A    between atoms: _335  and  _337
REMARK  138  A    between atoms: _337  and  _338
REMARK  139  A    between atoms: _337  and  _340
REMARK  140  A    between atoms: _340  and  _341
REMARK  141  A    between atoms: _344  and  _346
REMARK  142  A    between atoms: _346  and  _347
REMARK  143  A    between atoms: _349  and  _351
REMARK  144  A    between atoms: _351  and  _352
REMARK  145  A    between atoms: _351  and  _354
REMARK  146  A    between atoms: _354  and  _355
REMARK  147  A    between atoms: _358  and  _360
REMARK  148  A    between atoms: _360  and  _361
REMARK  149  A    between atoms: _360  and  _363
REMARK  150  A    between atoms: _363  and  _364
REMARK  151  A    between atoms: _367  and  _369
REMARK  152  A    between atoms: _369  and  _370
REMARK  153  A    between atoms: _369  and  _372
REMARK  154  A    between atoms: _372  and  _373
REMARK  155  A    between atoms: _376  and  _378
REMARK  156  A    between atoms: _378  and  _379
REMARK  157  A    between atoms: _378  and  _381
REMARK  158  A    between atoms: _381  and  _382
REMARK  159  A    between atoms: _387  and  _388
REMARK  160  A    between atoms: _390  and  _392
REMARK  161  A    between atoms: _392  and  _393
REMARK  162  A    between atoms: _392  and  _395
REMARK  163  A    between atoms: _395  and  _396
REMARK  164  A    between atoms: _399  and  _401
REMARK  165  A    between atoms: _401  and  _402
REMARK  166  A    between atoms: _401  and  _404
REMARK  167  A    between atoms: _407  and  _409
REMARK  168  A    between atoms: _409  and  _410
REMARK  169  A    between atoms: _409  and  _412
REMARK  170  A    between atoms: _412  and  _413
REMARK  171  A    between atoms: _416  and  _418
REMARK  172  A    between atoms: _418  and  _419
REMARK  173  A    between atoms: _418  and  _421
REMARK  174  A    between atoms: _421  and  _422
REMARK  175  A    between atoms: _427  and  _429
REMARK  176  A    between atoms: _429  and  _430
REMARK  177  A    between atoms: _429  and  _432
REMARK  178  A    between atoms: _432  and  _433
REMARK  179  A    between atoms: _436  and  _438
REMARK  180  A    between atoms: _438  and  _439
REMARK  181  A    between atoms: _438  and  _441
REMARK  182  A    between atoms: _441  and  _442
REMARK  183  A    between atoms: _442  and  _443
REMARK  184  A    between atoms: _445  and  _447
REMARK  185  A    between atoms: _447  and  _448
REMARK  186  A    between atoms: _450  and  _452
REMARK  187  A    between atoms: _452  and  _453
REMARK  188  A    between atoms: _456  and  _458
REMARK  189  A    between atoms: _458  and  _459
REMARK  190  A    between atoms: _458  and  _461
REMARK  191  A    between atoms: _461  and  _462
REMARK  192  A    between atoms: _465  and  _467
REMARK  193  A    between atoms: _467  and  _468
REMARK  194  A    between atoms: _467  and  _470
REMARK  195  A    between atoms: _470  and  _471
REMARK  196  A    between atoms: _476  and  _477
REMARK  197  A    between atoms: _479  and  _481
REMARK  198  A    between atoms: _481  and  _482
REMARK  199  A    between atoms: _481  and  _484
REMARK  200  A    between atoms: _484  and  _485
REMARK  201  A    between atoms: _488  and  _490
REMARK  202  A    between atoms: _490  and  _491
REMARK  203  A    between atoms: _490  and  _493
REMARK  204  A    between atoms: _493  and  _494
REMARK  205  A    between atoms: _497  and  _499
REMARK  206  A    between atoms: _499  and  _500
REMARK  207  A    between atoms: _499  and  _502
REMARK  208  A    between atoms: _502  and  _503
REMARK  209  A    between atoms: _506  and  _508
REMARK  210  A    between atoms: _508  and  _509
REMARK  211  A    between atoms: _508  and  _511
REMARK  212  A    between atoms: _511  and  _512
REMARK  213  A    between atoms: _517  and  _519
REMARK  214  A    between atoms: _519  and  _520
REMARK  215  A    between atoms: _519  and  _522
REMARK  216  A    between atoms: _522  and  _523
REMARK  217  A    between atoms: _523  and  _524
REMARK  218  A    between atoms: _524  and  _525
REMARK  219  A    between atoms: _534  and  _536
REMARK  220  A    between atoms: _536  and  _537
REMARK  221  A    between atoms: _536  and  _539
REMARK  222  A    between atoms: _539  and  _540
REMARK  223  A    between atoms: _543  and  _545
REMARK  224  A    between atoms: _545  and  _546
REMARK  225  A    between atoms: _545  and  _548
REMARK  226  A    between atoms: _548  and  _549
REMARK  227  A    between atoms: _552  and  _554
REMARK  228  A    between atoms: _554  and  _555
REMARK  229  A    between atoms: _554  and  _557
REMARK  230  A    between atoms: _557  and  _558
REMARK  231  A    between atoms: _563  and  _565
REMARK  232  A    between atoms: _565  and  _566
REMARK  233  A    between atoms: _565  and  _568
REMARK  234  A    between atoms: _568  and  _569
REMARK  235  A    between atoms: _572  and  _574
REMARK  236  A    between atoms: _574  and  _575
REMARK  237  A    between atoms: _578  and  _580
REMARK  238  A    between atoms: _580  and  _581
REMARK  239  A    between atoms: _580  and  _583
REMARK  240  A    between atoms: _583  and  _584
REMARK  241  A    between atoms: _584  and  _585
REMARK  242  A    between atoms: _585  and  _586
REMARK  243  A    between atoms: _586  and  _587
REMARK  244  A    between atoms: _591  and  _593
REMARK  245  A    between atoms: _593  and  _594
REMARK  246  A    between atoms: _593  and  _596
REMARK  247  A    between atoms: _596  and  _597
REMARK  248  A    between atoms: _600  and  _602
REMARK  249  A    between atoms: _602  and  _603
REMARK  250  A    between atoms: _602  and  _605
REMARK  251  A    between atoms: _605  and  _606
REMARK  252  A    between atoms: _609  and  _611
REMARK  253  A    between atoms: _611  and  _612
REMARK  254  A    between atoms: _611  and  _614
REMARK  255  A    between atoms: _614  and  _615
REMARK  256  A    between atoms: _618  and  _620
REMARK  257  A    between atoms: _620  and  _621
REMARK  258  A    between atoms: _620  and  _623
REMARK  259  A    between atoms: _623  and  _624
REMARK  260  A    between atoms: _630  and  _632
REMARK  261  A    between atoms: _632  and  _633
REMARK  262  A    between atoms: _635  and  _637
REMARK  263  A    between atoms: _637  and  _638
REMARK  264  A    between atoms: _637  and  _640
REMARK  265  A    between atoms: _640  and  _641
REMARK  266  A    between atoms: _644  and  _646
REMARK  267  A    between atoms: _646  and  _647
REMARK  268  A    between atoms: _646  and  _649
REMARK  269  A    between atoms: _649  and  _650
REMARK  270  A    between atoms: _653  and  _655
REMARK  271  A    between atoms: _655  and  _656
REMARK  272  A    between atoms: _655  and  _658
REMARK  273  A    between atoms: _658  and  _659
REMARK  274  A    between atoms: _664  and  _665
REMARK  275  A    between atoms: _667  and  _669
REMARK  276  A    between atoms: _669  and  _670
REMARK  277  A    between atoms: _669  and  _672
REMARK  278  A    between atoms: _672  and  _673
REMARK  279  A    between atoms: _673  and  _674
REMARK                            x       y       z     vdW  Elec       q    Type
REMARK                         _______ _______ _______ _____ _____    ______ ____
ROOT
ATOM      1  O   HOH     1      16.790   3.936  10.777  0.00  0.00    +0.000 OA
ENDROOT
TORSDOF 0
REMARK  Name = ../refined-set-2016/3gcu/3gcu_pocket.pdb
REMARK  279 active torsions:
REMARK  status: ('A' for Active; 'I' for Inactive)
REMARK    1  A    between atoms: _2  and  _3
REMARK    2  A    between atoms: _8  and  _10
REMARK    3  A    between atoms: _10  and  _11
REMARK    4  A    between atoms: _10  and  _13
REMARK    5  A    between atoms: _16  and  _18
REMARK    6  A    between atoms: _18  and  _19
REMARK    7  A    between atoms: _21  and  _23
REMARK    8  A    between atoms: _23  and  _24
REMARK    9  A    between atoms: _23  and  _26
REMARK   10  A    between atoms: _26  and  _27
REMARK   11  A    between atoms: _29  and  _31
REMARK   12  A    between atoms: _31  and  _32
REMARK   13  A    between atoms: _31  and  _34
REMARK   14  A    between atoms: _34  and  _35
REMARK   15  A    between atoms: _40  and  _41
REMARK   16  A    between atoms: _43  and  _45
REMARK   17  A    between atoms: _45  and  _46
REMARK   18  A    between atoms: _45  and  _48
REMARK   19  A    between atoms: _48  and  _49
REMARK   20  A    between atoms: _51  and  _53
REMARK   21  A    between atoms: _53  and  _54
REMARK   22  A    between atoms: _53  and  _56
REMARK   23  A    between atoms: _59  and  _61
REMARK   24  A    between atoms: _61  and  _62
REMARK   25  A    between atoms: _61  and  _64
REMARK   26  A    between atoms: _66  and  _68
REMARK   27  A    between atoms: _68  and  _69
REMARK   28  A    between atoms: _72  and  _74
REMARK   29  A    between atoms: _74  and  _75
REMARK   30  A    between atoms: _78  and  _80
REMARK   31  A    between atoms: _80  and  _81
REMARK   32  A    between atoms: _80  and  _83
REMARK   33  A    between atoms: _83  and  _84
REMARK   34  A    between atoms: _84  and  _85
REMARK   35  A    between atoms: _85  and  _86
REMARK   36  A    between atoms: _95  and  _97
REMARK   37  A    between atoms: _97  and  _98
REMARK   38  A    between atoms: _97  and  _100
REMARK   39  A    between atoms: _103  and  _105
REMARK   40  A    between atoms: _105  and  _106
REMARK   41  A    between atoms: _109  and  _111
REMARK   42  A    between atoms: _111  and  _112
REMARK   43  A    between atoms: _111  and  _114
REMARK   44  A    between atoms: _117  and  _119
REMARK   45  A    between atoms: _119  and  _120
REMARK   46  A    between atoms: _119  and  _122
REMARK   47  A    between atoms: _122  and  _123
REMARK   48  A    between atoms: _123  and  _124
REMARK   49  A    between atoms: _124  and  _125
REMARK   50  A    between atoms: _125  and  _126
REMARK   51  A    between atoms: _130  and  _132
REMARK   52  A    between atoms: _132  and  _133
REMARK   53  A    between atoms: _132  and  _135
REMARK   54  A    between atoms: _135  and  _136
REMARK   55  A    between atoms: _136  and  _137
REMARK   56  A    between atoms: _137  and  _138
REMARK   57  A    between atoms: _138  and  _139
REMARK   58  A    between atoms: _143  and  _145
REMARK   59  A    between atoms: _145  and  _146
REMARK   60  A    between atoms: _145  and  _148
REMARK   61  A    between atoms: _148  and  _149
REMARK   62  A    between atoms: _152  and  _154
REMARK   63  A    between atoms: _154  and  _155
REMARK   64  A    between atoms: _154  and  _157
REMARK   65  A    between atoms: _157  and  _158
REMARK   66  A    between atoms: _161  and  _163
REMARK   67  A    between atoms: _163  and  _164
REMARK   68  A    between atoms: _163  and  _166
REMARK   69  A    between atoms: _166  and  _167
REMARK   70  A    between atoms: _172  and  _174
REMARK   71  A    between atoms: _174  and  _175
REMARK   72  A    between atoms: _174  and  _177
REMARK   73  A    between atoms: _177  and  _178
REMARK   74  A    between atoms: _178  and  _179
REMARK   75  A    between atoms: _179  and  _180
REMARK   76  A    between atoms: _180  and  _181
REMARK   77  A    between atoms: _185  and  _187
REMARK   78  A    between atoms: _187  and  _188
REMARK   79  A    between atoms: _187  and  _190
REMARK   80  A    between atoms: _190  and  _191
REMARK   81  A    between atoms: _191  and  _192
REMARK   82  A    between atoms: _192  and  _193
REMARK   83  A    between atoms: _202  and  _204
REMARK   84  A    between atoms: _204  and  _205
REMARK   85  A    between atoms: _204  and  _207
REMARK   86  A    between atoms: _207  and  _208
REMARK   87  A    between atoms: _211  and  _213
REMARK   88  A    between atoms: _213  and  _214
REMARK   89  A    between atoms: _213  and  _216
REMARK   90  A    between atoms: _216  and  _217
REMARK   91  A    between atoms: _222  and  _223
REMARK   92  A    between atoms: _225  and  _227
REMARK   93  A    between atoms: _227  and  _228
REMARK   94  A    between atoms: _227  and  _230
REMARK   95  A    between atoms: _230  and  _231
REMARK   96  A    between atoms: _231  and  _232
REMARK   97  A    between atoms: _232  and  _233
REMARK   98  A    between atoms: _242  and  _244
REMARK   99  A    between atoms: _244  and  _245
REMARK  100  A    between atoms: _244  and  _247
REMARK  101  A    between atoms: _247  and  _248
REMARK  102  A    between atoms: _248  and  _249
REMARK  103  A    between atoms: _252  and  _254
REMARK  104  A    between atoms: _254  and  _255
REMARK  105  A    between atoms: _254  and  _257
REMARK  106  A    between atoms: _257  and  _258
REMARK  107  A    between atoms: _261  and  _263
REMARK  108  A    between atoms: _263  and  _264
REMARK  109  A    between atoms: _263  and  _266
REMARK  110  A    between atoms: _266  and  _267
REMARK  111  A    between atoms: _267  and  _268
REMARK  112  A    between atoms: _268  and  _269
REMARK  113  A    between atoms: _278  and  _280
REMARK  114  A    between atoms: _280  and  _281
REMARK  115  A    between atoms: _280  and  _283
REMARK  116  A    between atoms: _283  and  _284
REMARK  117  A    between atoms: _287  and  _289
REMARK  118  A    between atoms: _289  and  _290
REMARK  119  A    between atoms: _289  and  _292
REMARK  120  A    between atoms: _292  and  _293
REMARK  121  A    between atoms: _296  and  _298
REMARK  122  A    between atoms: _298  and  _299
REMARK  123  A    between atoms: _298  and  _301
REMARK  124  A    between atoms: _301  and  _302
REMARK  125  A    between atoms: _307  and  _309
REMARK  126  A    between atoms: _309  and  _310
REMARK  127  A    between atoms: _309  and  _312
REMARK  128  A    between atoms: _312  and  _313
REMARK  129  A    between atoms: _313  and  _314
REMARK  130  A    between atoms: _316  and  _318
REMARK  131  A    between atoms: _318  and  _319
REMARK  132  A    between atoms: _318  and  _321
REMARK  133  A    between atoms: _321  and  _322
REMARK  134  A    between atoms: _327  and  _329
REMARK  135  A    between atoms: _329  and  _330
REMARK  136  A    between atoms: _329  and  _332
REMARK  137  A    between atoms: _335  and  _337
REMARK  138  A    between atoms: _337  and  _338
REMARK  139  A    between atoms: _337  and  _340
REMARK  140  A    between atoms: _340  and  _341
REMARK  141  A    between atoms: _344  and  _346
REMARK  142  A    between atoms: _346  and  _347
REMARK  143  A    between atoms: _349  and  _351
REMARK  144  A    between atoms: _351  and  _352
REMARK  145  A    between atoms: _351  and  _354
REMARK  146  A    between atoms: _354  and  _355
REMARK  147  A    between atoms: _358  and  _360
REMARK  148  A    between atoms: _360  and  _361
REMARK  149  A    between atoms: _360  and  _363
REMARK  150  A    between atoms: _363  and  _364
REMARK  151  A    between atoms: _367  and  _369
REMARK  152  A    between atoms: _369  and  _370
REMARK  153  A    between atoms: _369  and  _372
REMARK  154  A    between atoms: _372  and  _373
REMARK  155  A    between atoms: _376  and  _378
REMARK  156  A    between atoms: _378  and  _379
REMARK  157  A    between atoms: _378  and  _381
REMARK  158  A    between atoms: _381  and  _382
REMARK  159  A    between atoms: _387  and  _388
REMARK  160  A    between atoms: _390  and  _392
REMARK  161  A    between atoms: _392  and  _393
REMARK  162  A    between atoms: _392  and  _395
REMARK  163  A    between atoms: _395  and  _396
REMARK  164  A    between atoms: _399  and  _401
REMARK  165  A    between atoms: _401  and  _402
REMARK  166  A    between atoms: _401  and  _404
REMARK  167  A    between atoms: _407  and  _409
REMARK  168  A    between atoms: _409  and  _410
REMARK  169  A    between atoms: _409  and  _412
REMARK  170  A    between atoms: _412  and  _413
REMARK  171  A    between atoms: _416  and  _418
REMARK  172  A    between atoms: _418  and  _419
REMARK  173  A    between atoms: _418  and  _421
REMARK  174  A    between atoms: _421  and  _422
REMARK  175  A    between atoms: _427  and  _429
REMARK  176  A    between atoms: _429  and  _430
REMARK  177  A    between atoms: _429  and  _432
REMARK  178  A    between atoms: _432  and  _433
REMARK  179  A    between atoms: _436  and  _438
REMARK  180  A    between atoms: _438  and  _439
REMARK  181  A    between atoms: _438  and  _441
REMARK  182  A    between atoms: _441  and  _442
REMARK  183  A    between atoms: _442  and  _443
REMARK  184  A    between atoms: _445  and  _447
REMARK  185  A    between atoms: _447  and  _448
REMARK  186  A    between atoms: _450  and  _452
REMARK  187  A    between atoms: _452  and  _453
REMARK  188  A    between atoms: _456  and  _458
REMARK  189  A    between atoms: _458  and  _459
REMARK  190  A    between atoms: _458  and  _461
REMARK  191  A    between atoms: _461  and  _462
REMARK  192  A    between atoms: _465  and  _467
REMARK  193  A    between atoms: _467  and  _468
REMARK  194  A    between atoms: _467  and  _470
REMARK  195  A    between atoms: _470  and  _471
REMARK  196  A    between atoms: _476  and  _477
REMARK  197  A    between atoms: _479  and  _481
REMARK  198  A    between atoms: _481  and  _482
REMARK  199  A    between atoms: _481  and  _484
REMARK  200  A    between atoms: _484  and  _485
REMARK  201  A    between atoms: _488  and  _490
REMARK  202  A    between atoms: _490  and  _491
REMARK  203  A    between atoms: _490  and  _493
REMARK  204  A    between atoms: _493  and  _494
REMARK  205  A    between atoms: _497  and  _499
REMARK  206  A    between atoms: _499  and  _500
REMARK  207  A    between atoms: _499  and  _502
REMARK  208  A    between atoms: _502  and  _503
REMARK  209  A    between atoms: _506  and  _508
REMARK  210  A    between atoms: _508  and  _509
REMARK  211  A    between atoms: _508  and  _511
REMARK  212  A    between atoms: _511  and  _512
REMARK  213  A    between atoms: _517  and  _519
REMARK  214  A    between atoms: _519  and  _520
REMARK  215  A    between atoms: _519  and  _522
REMARK  216  A    between atoms: _522  and  _523
REMARK  217  A    between atoms: _523  and  _524
REMARK  218  A    between atoms: _524  and  _525
REMARK  219  A    between atoms: _534  and  _536
REMARK  220  A    between atoms: _536  and  _537
REMARK  221  A    between atoms: _536  and  _539
REMARK  222  A    between atoms: _539  and  _540
REMARK  223  A    between atoms: _543  and  _545
REMARK  224  A    between atoms: _545  and  _546
REMARK  225  A    between atoms: _545  and  _548
REMARK  226  A    between atoms: _548  and  _549
REMARK  227  A    between atoms: _552  and  _554
REMARK  228  A    between atoms: _554  and  _555
REMARK  229  A    between atoms: _554  and  _557
REMARK  230  A    between atoms: _557  and  _558
REMARK  231  A    between atoms: _563  and  _565
REMARK  232  A    between atoms: _565  and  _566
REMARK  233  A    between atoms: _565  and  _568
REMARK  234  A    between atoms: _568  and  _569
REMARK  235  A    between atoms: _572  and  _574
REMARK  236  A    between atoms: _574  and  _575
REMARK  237  A    between atoms: _578  and  _580
REMARK  238  A    between atoms: _580  and  _581
REMARK  239  A    between atoms: _580  and  _583
REMARK  240  A    between atoms: _583  and  _584
REMARK  241  A    between atoms: _584  and  _585
REMARK  242  A    between atoms: _585  and  _586
REMARK  243  A    between atoms: _586  and  _587
REMARK  244  A    between atoms: _591  and  _593
REMARK  245  A    between atoms: _593  and  _594
REMARK  246  A    between atoms: _593  and  _596
REMARK  247  A    between atoms: _596  and  _597
REMARK  248  A    between atoms: _600  and  _602
REMARK  249  A    between atoms: _602  and  _603
REMARK  250  A    between atoms: _602  and  _605
REMARK  251  A    between atoms: _605  and  _606
REMARK  252  A    between atoms: _609  and  _611
REMARK  253  A    between atoms: _611  and  _612
REMARK  254  A    between atoms: _611  and  _614
REMARK  255  A    between atoms: _614  and  _615
REMARK  256  A    between atoms: _618  and  _620
REMARK  257  A    between atoms: _620  and  _621
REMARK  258  A    between atoms: _620  and  _623
REMARK  259  A    between atoms: _623  and  _624
REMARK  260  A    between atoms: _630  and  _632
REMARK  261  A    between atoms: _632  and  _633
REMARK  262  A    between atoms: _635  and  _637
REMARK  263  A    between atoms: _637  and  _638
REMARK  264  A    between atoms: _637  and  _640
REMARK  265  A    between atoms: _640  and  _641
REMARK  266  A    between atoms: _644  and  _646
REMARK  267  A    between atoms: _646  and  _647
REMARK  268  A    between atoms: _646  and  _649
REMARK  269  A    between atoms: _649  and  _650
REMARK  270  A    between atoms: _653  and  _655
REMARK  271  A    between atoms: _655  and  _656
REMARK  272  A    between atoms: _655  and  _658
REMARK  273  A    between atoms: _658  and  _659
REMARK  274  A    between atoms: _664  and  _665
REMARK  275  A    between atoms: _667  and  _669
REMARK  276  A    between atoms: _669  and  _670
REMARK  277  A    between atoms: _669  and  _672
REMARK  278  A    between atoms: _672  and  _673
REMARK  279  A    between atoms: _673  and  _674
REMARK                            x       y       z     vdW  Elec       q    Type
REMARK                         _______ _______ _______ _____ _____    ______ ____
ROOT
ATOM      1  O   HOH     1      16.430   1.463  11.387  0.00  0.00    +0.000 OA
ENDROOT
TORSDOF 0
REMARK  Name = ../refined-set-2016/3gcu/3gcu_pocket.pdb
REMARK  279 active torsions:
REMARK  status: ('A' for Active; 'I' for Inactive)
REMARK    1  A    between atoms: _2  and  _3
REMARK    2  A    between atoms: _8  and  _10
REMARK    3  A    between atoms: _10  and  _11
REMARK    4  A    between atoms: _10  and  _13
REMARK    5  A    between atoms: _16  and  _18
REMARK    6  A    between atoms: _18  and  _19
REMARK    7  A    between atoms: _21  and  _23
REMARK    8  A    between atoms: _23  and  _24
REMARK    9  A    between atoms: _23  and  _26
REMARK   10  A    between atoms: _26  and  _27
REMARK   11  A    between atoms: _29  and  _31
REMARK   12  A    between atoms: _31  and  _32
REMARK   13  A    between atoms: _31  and  _34
REMARK   14  A    between atoms: _34  and  _35
REMARK   15  A    between atoms: _40  and  _41
REMARK   16  A    between atoms: _43  and  _45
REMARK   17  A    between atoms: _45  and  _46
REMARK   18  A    between atoms: _45  and  _48
REMARK   19  A    between atoms: _48  and  _49
REMARK   20  A    between atoms: _51  and  _53
REMARK   21  A    between atoms: _53  and  _54
REMARK   22  A    between atoms: _53  and  _56
REMARK   23  A    between atoms: _59  and  _61
REMARK   24  A    between atoms: _61  and  _62
REMARK   25  A    between atoms: _61  and  _64
REMARK   26  A    between atoms: _66  and  _68
REMARK   27  A    between atoms: _68  and  _69
REMARK   28  A    between atoms: _72  and  _74
REMARK   29  A    between atoms: _74  and  _75
REMARK   30  A    between atoms: _78  and  _80
REMARK   31  A    between atoms: _80  and  _81
REMARK   32  A    between atoms: _80  and  _83
REMARK   33  A    between atoms: _83  and  _84
REMARK   34  A    between atoms: _84  and  _85
REMARK   35  A    between atoms: _85  and  _86
REMARK   36  A    between atoms: _95  and  _97
REMARK   37  A    between atoms: _97  and  _98
REMARK   38  A    between atoms: _97  and  _100
REMARK   39  A    between atoms: _103  and  _105
REMARK   40  A    between atoms: _105  and  _106
REMARK   41  A    between atoms: _109  and  _111
REMARK   42  A    between atoms: _111  and  _112
REMARK   43  A    between atoms: _111  and  _114
REMARK   44  A    between atoms: _117  and  _119
REMARK   45  A    between atoms: _119  and  _120
REMARK   46  A    between atoms: _119  and  _122
REMARK   47  A    between atoms: _122  and  _123
REMARK   48  A    between atoms: _123  and  _124
REMARK   49  A    between atoms: _124  and  _125
REMARK   50  A    between atoms: _125  and  _126
REMARK   51  A    between atoms: _130  and  _132
REMARK   52  A    between atoms: _132  and  _133
REMARK   53  A    between atoms: _132  and  _135
REMARK   54  A    between atoms: _135  and  _136
REMARK   55  A    between atoms: _136  and  _137
REMARK   56  A    between atoms: _137  and  _138
REMARK   57  A    between atoms: _138  and  _139
REMARK   58  A    between atoms: _143  and  _145
REMARK   59  A    between atoms: _145  and  _146
REMARK   60  A    between atoms: _145  and  _148
REMARK   61  A    between atoms: _148  and  _149
REMARK   62  A    between atoms: _152  and  _154
REMARK   63  A    between atoms: _154  and  _155
REMARK   64  A    between atoms: _154  and  _157
REMARK   65  A    between atoms: _157  and  _158
REMARK   66  A    between atoms: _161  and  _163
REMARK   67  A    between atoms: _163  and  _164
REMARK   68  A    between atoms: _163  and  _166
REMARK   69  A    between atoms: _166  and  _167
REMARK   70  A    between atoms: _172  and  _174
REMARK   71  A    between atoms: _174  and  _175
REMARK   72  A    between atoms: _174  and  _177
REMARK   73  A    between atoms: _177  and  _178
REMARK   74  A    between atoms: _178  and  _179
REMARK   75  A    between atoms: _179  and  _180
REMARK   76  A    between atoms: _180  and  _181
REMARK   77  A    between atoms: _185  and  _187
REMARK   78  A    between atoms: _187  and  _188
REMARK   79  A    between atoms: _187  and  _190
REMARK   80  A    between atoms: _190  and  _191
REMARK   81  A    between atoms: _191  and  _192
REMARK   82  A    between atoms: _192  and  _193
REMARK   83  A    between atoms: _202  and  _204
REMARK   84  A    between atoms: _204  and  _205
REMARK   85  A    between atoms: _204  and  _207
REMARK   86  A    between atoms: _207  and  _208
REMARK   87  A    between atoms: _211  and  _213
REMARK   88  A    between atoms: _213  and  _214
REMARK   89  A    between atoms: _213  and  _216
REMARK   90  A    between atoms: _216  and  _217
REMARK   91  A    between atoms: _222  and  _223
REMARK   92  A    between atoms: _225  and  _227
REMARK   93  A    between atoms: _227  and  _228
REMARK   94  A    between atoms: _227  and  _230
REMARK   95  A    between atoms: _230  and  _231
REMARK   96  A    between atoms: _231  and  _232
REMARK   97  A    between atoms: _232  and  _233
REMARK   98  A    between atoms: _242  and  _244
REMARK   99  A    between atoms: _244  and  _245
REMARK  100  A    between atoms: _244  and  _247
REMARK  101  A    between atoms: _247  and  _248
REMARK  102  A    between atoms: _248  and  _249
REMARK  103  A    between atoms: _252  and  _254
REMARK  104  A    between atoms: _254  and  _255
REMARK  105  A    between atoms: _254  and  _257
REMARK  106  A    between atoms: _257  and  _258
REMARK  107  A    between atoms: _261  and  _263
REMARK  108  A    between atoms: _263  and  _264
REMARK  109  A    between atoms: _263  and  _266
REMARK  110  A    between atoms: _266  and  _267
REMARK  111  A    between atoms: _267  and  _268
REMARK  112  A    between atoms: _268  and  _269
REMARK  113  A    between atoms: _278  and  _280
REMARK  114  A    between atoms: _280  and  _281
REMARK  115  A    between atoms: _280  and  _283
REMARK  116  A    between atoms: _283  and  _284
REMARK  117  A    between atoms: _287  and  _289
REMARK  118  A    between atoms: _289  and  _290
REMARK  119  A    between atoms: _289  and  _292
REMARK  120  A    between atoms: _292  and  _293
REMARK  121  A    between atoms: _296  and  _298
REMARK  122  A    between atoms: _298  and  _299
REMARK  123  A    between atoms: _298  and  _301
REMARK  124  A    between atoms: _301  and  _302
REMARK  125  A    between atoms: _307  and  _309
REMARK  126  A    between atoms: _309  and  _310
REMARK  127  A    between atoms: _309  and  _312
REMARK  128  A    between atoms: _312  and  _313
REMARK  129  A    between atoms: _313  and  _314
REMARK  130  A    between atoms: _316  and  _318
REMARK  131  A    between atoms: _318  and  _319
REMARK  132  A    between atoms: _318  and  _321
REMARK  133  A    between atoms: _321  and  _322
REMARK  134  A    between atoms: _327  and  _329
REMARK  135  A    between atoms: _329  and  _330
REMARK  136  A    between atoms: _329  and  _332
REMARK  137  A    between atoms: _335  and  _337
REMARK  138  A    between atoms: _337  and  _338
REMARK  139  A    between atoms: _337  and  _340
REMARK  140  A    between atoms: _340  and  _341
REMARK  141  A    between atoms: _344  and  _346
REMARK  142  A    between atoms: _346  and  _347
REMARK  143  A    between atoms: _349  and  _351
REMARK  144  A    between atoms: _351  and  _352
REMARK  145  A    between atoms: _351  and  _354
REMARK  146  A    between atoms: _354  and  _355
REMARK  147  A    between atoms: _358  and  _360
REMARK  148  A    between atoms: _360  and  _361
REMARK  149  A    between atoms: _360  and  _363
REMARK  150  A    between atoms: _363  and  _364
REMARK  151  A    between atoms: _367  and  _369
REMARK  152  A    between atoms: _369  and  _370
REMARK  153  A    between atoms: _369  and  _372
REMARK  154  A    between atoms: _372  and  _373
REMARK  155  A    between atoms: _376  and  _378
REMARK  156  A    between atoms: _378  and  _379
REMARK  157  A    between atoms: _378  and  _381
REMARK  158  A    between atoms: _381  and  _382
REMARK  159  A    between atoms: _387  and  _388
REMARK  160  A    between atoms: _390  and  _392
REMARK  161  A    between atoms: _392  and  _393
REMARK  162  A    between atoms: _392  and  _395
REMARK  163  A    between atoms: _395  and  _396
REMARK  164  A    between atoms: _399  and  _401
REMARK  165  A    between atoms: _401  and  _402
REMARK  166  A    between atoms: _401  and  _404
REMARK  167  A    between atoms: _407  and  _409
REMARK  168  A    between atoms: _409  and  _410
REMARK  169  A    between atoms: _409  and  _412
REMARK  170  A    between atoms: _412  and  _413
REMARK  171  A    between atoms: _416  and  _418
REMARK  172  A    between atoms: _418  and  _419
REMARK  173  A    between atoms: _418  and  _421
REMARK  174  A    between atoms: _421  and  _422
REMARK  175  A    between atoms: _427  and  _429
REMARK  176  A    between atoms: _429  and  _430
REMARK  177  A    between atoms: _429  and  _432
REMARK  178  A    between atoms: _432  and  _433
REMARK  179  A    between atoms: _436  and  _438
REMARK  180  A    between atoms: _438  and  _439
REMARK  181  A    between atoms: _438  and  _441
REMARK  182  A    between atoms: _441  and  _442
REMARK  183  A    between atoms: _442  and  _443
REMARK  184  A    between atoms: _445  and  _447
REMARK  185  A    between atoms: _447  and  _448
REMARK  186  A    between atoms: _450  and  _452
REMARK  187  A    between atoms: _452  and  _453
REMARK  188  A    between atoms: _456  and  _458
REMARK  189  A    between atoms: _458  and  _459
REMARK  190  A    between atoms: _458  and  _461
REMARK  191  A    between atoms: _461  and  _462
REMARK  192  A    between atoms: _465  and  _467
REMARK  193  A    between atoms: _467  and  _468
REMARK  194  A    between atoms: _467  and  _470
REMARK  195  A    between atoms: _470  and  _471
REMARK  196  A    between atoms: _476  and  _477
REMARK  197  A    between atoms: _479  and  _481
REMARK  198  A    between atoms: _481  and  _482
REMARK  199  A    between atoms: _481  and  _484
REMARK  200  A    between atoms: _484  and  _485
REMARK  201  A    between atoms: _488  and  _490
REMARK  202  A    between atoms: _490  and  _491
REMARK  203  A    between atoms: _490  and  _493
REMARK  204  A    between atoms: _493  and  _494
REMARK  205  A    between atoms: _497  and  _499
REMARK  206  A    between atoms: _499  and  _500
REMARK  207  A    between atoms: _499  and  _502
REMARK  208  A    between atoms: _502  and  _503
REMARK  209  A    between atoms: _506  and  _508
REMARK  210  A    between atoms: _508  and  _509
REMARK  211  A    between atoms: _508  and  _511
REMARK  212  A    between atoms: _511  and  _512
REMARK  213  A    between atoms: _517  and  _519
REMARK  214  A    between atoms: _519  and  _520
REMARK  215  A    between atoms: _519  and  _522
REMARK  216  A    between atoms: _522  and  _523
REMARK  217  A    between atoms: _523  and  _524
REMARK  218  A    between atoms: _524  and  _525
REMARK  219  A    between atoms: _534  and  _536
REMARK  220  A    between atoms: _536  and  _537
REMARK  221  A    between atoms: _536  and  _539
REMARK  222  A    between atoms: _539  and  _540
REMARK  223  A    between atoms: _543  and  _545
REMARK  224  A    between atoms: _545  and  _546
REMARK  225  A    between atoms: _545  and  _548
REMARK  226  A    between atoms: _548  and  _549
REMARK  227  A    between atoms: _552  and  _554
REMARK  228  A    between atoms: _554  and  _555
REMARK  229  A    between atoms: _554  and  _557
REMARK  230  A    between atoms: _557  and  _558
REMARK  231  A    between atoms: _563  and  _565
REMARK  232  A    between atoms: _565  and  _566
REMARK  233  A    between atoms: _565  and  _568
REMARK  234  A    between atoms: _568  and  _569
REMARK  235  A    between atoms: _572  and  _574
REMARK  236  A    between atoms: _574  and  _575
REMARK  237  A    between atoms: _578  and  _580
REMARK  238  A    between atoms: _580  and  _581
REMARK  239  A    between atoms: _580  and  _583
REMARK  240  A    between atoms: _583  and  _584
REMARK  241  A    between atoms: _584  and  _585
REMARK  242  A    between atoms: _585  and  _586
REMARK  243  A    between atoms: _586  and  _587
REMARK  244  A    between atoms: _591  and  _593
REMARK  245  A    between atoms: _593  and  _594
REMARK  246  A    between atoms: _593  and  _596
REMARK  247  A    between atoms: _596  and  _597
REMARK  248  A    between atoms: _600  and  _602
REMARK  249  A    between atoms: _602  and  _603
REMARK  250  A    between atoms: _602  and  _605
REMARK  251  A    between atoms: _605  and  _606
REMARK  252  A    between atoms: _609  and  _611
REMARK  253  A    between atoms: _611  and  _612
REMARK  254  A    between atoms: _611  and  _614
REMARK  255  A    between atoms: _614  and  _615
REMARK  256  A    between atoms: _618  and  _620
REMARK  257  A    between atoms: _620  and  _621
REMARK  258  A    between atoms: _620  and  _623
REMARK  259  A    between atoms: _623  and  _624
REMARK  260  A    between atoms: _630  and  _632
REMARK  261  A    between atoms: _632  and  _633
REMARK  262  A    between atoms: _635  and  _637
REMARK  263  A    between atoms: _637  and  _638
REMARK  264  A    between atoms: _637  and  _640
REMARK  265  A    between atoms: _640  and  _641
REMARK  266  A    between atoms: _644  and  _646
REMARK  267  A    between atoms: _646  and  _647
REMARK  268  A    between atoms: _646  and  _649
REMARK  269  A    between atoms: _649  and  _650
REMARK  270  A    between atoms: _653  and  _655
REMARK  271  A    between atoms: _655  and  _656
REMARK  272  A    between atoms: _655  and  _658
REMARK  273  A    between atoms: _658  and  _659
REMARK  274  A    between atoms: _664  and  _665
REMARK  275  A    between atoms: _667  and  _669
REMARK  276  A    between atoms: _669  and  _670
REMARK  277  A    between atoms: _669  and  _672
REMARK  278  A    between atoms: _672  and  _673
REMARK  279  A    between atoms: _673  and  _674
REMARK                            x       y       z     vdW  Elec       q    Type
REMARK                         _______ _______ _______ _____ _____    ______ ____
ROOT
ATOM      1  O   HOH     1      13.090  -3.691  -5.856  0.00  0.00    +0.000 OA
ENDROOT
TORSDOF 0
REMARK  Name = ../refined-set-2016/3gcu/3gcu_pocket.pdb
REMARK  279 active torsions:
REMARK  status: ('A' for Active; 'I' for Inactive)
REMARK    1  A    between atoms: _2  and  _3
REMARK    2  A    between atoms: _8  and  _10
REMARK    3  A    between atoms: _10  and  _11
REMARK    4  A    between atoms: _10  and  _13
REMARK    5  A    between atoms: _16  and  _18
REMARK    6  A    between atoms: _18  and  _19
REMARK    7  A    between atoms: _21  and  _23
REMARK    8  A    between atoms: _23  and  _24
REMARK    9  A    between atoms: _23  and  _26
REMARK   10  A    between atoms: _26  and  _27
REMARK   11  A    between atoms: _29  and  _31
REMARK   12  A    between atoms: _31  and  _32
REMARK   13  A    between atoms: _31  and  _34
REMARK   14  A    between atoms: _34  and  _35
REMARK   15  A    between atoms: _40  and  _41
REMARK   16  A    between atoms: _43  and  _45
REMARK   17  A    between atoms: _45  and  _46
REMARK   18  A    between atoms: _45  and  _48
REMARK   19  A    between atoms: _48  and  _49
REMARK   20  A    between atoms: _51  and  _53
REMARK   21  A    between atoms: _53  and  _54
REMARK   22  A    between atoms: _53  and  _56
REMARK   23  A    between atoms: _59  and  _61
REMARK   24  A    between atoms: _61  and  _62
REMARK   25  A    between atoms: _61  and  _64
REMARK   26  A    between atoms: _66  and  _68
REMARK   27  A    between atoms: _68  and  _69
REMARK   28  A    between atoms: _72  and  _74
REMARK   29  A    between atoms: _74  and  _75
REMARK   30  A    between atoms: _78  and  _80
REMARK   31  A    between atoms: _80  and  _81
REMARK   32  A    between atoms: _80  and  _83
REMARK   33  A    between atoms: _83  and  _84
REMARK   34  A    between atoms: _84  and  _85
REMARK   35  A    between atoms: _85  and  _86
REMARK   36  A    between atoms: _95  and  _97
REMARK   37  A    between atoms: _97  and  _98
REMARK   38  A    between atoms: _97  and  _100
REMARK   39  A    between atoms: _103  and  _105
REMARK   40  A    between atoms: _105  and  _106
REMARK   41  A    between atoms: _109  and  _111
REMARK   42  A    between atoms: _111  and  _112
REMARK   43  A    between atoms: _111  and  _114
REMARK   44  A    between atoms: _117  and  _119
REMARK   45  A    between atoms: _119  and  _120
REMARK   46  A    between atoms: _119  and  _122
REMARK   47  A    between atoms: _122  and  _123
REMARK   48  A    between atoms: _123  and  _124
REMARK   49  A    between atoms: _124  and  _125
REMARK   50  A    between atoms: _125  and  _126
REMARK   51  A    between atoms: _130  and  _132
REMARK   52  A    between atoms: _132  and  _133
REMARK   53  A    between atoms: _132  and  _135
REMARK   54  A    between atoms: _135  and  _136
REMARK   55  A    between atoms: _136  and  _137
REMARK   56  A    between atoms: _137  and  _138
REMARK   57  A    between atoms: _138  and  _139
REMARK   58  A    between atoms: _143  and  _145
REMARK   59  A    between atoms: _145  and  _146
REMARK   60  A    between atoms: _145  and  _148
REMARK   61  A    between atoms: _148  and  _149
REMARK   62  A    between atoms: _152  and  _154
REMARK   63  A    between atoms: _154  and  _155
REMARK   64  A    between atoms: _154  and  _157
REMARK   65  A    between atoms: _157  and  _158
REMARK   66  A    between atoms: _161  and  _163
REMARK   67  A    between atoms: _163  and  _164
REMARK   68  A    between atoms: _163  and  _166
REMARK   69  A    between atoms: _166  and  _167
REMARK   70  A    between atoms: _172  and  _174
REMARK   71  A    between atoms: _174  and  _175
REMARK   72  A    between atoms: _174  and  _177
REMARK   73  A    between atoms: _177  and  _178
REMARK   74  A    between atoms: _178  and  _179
REMARK   75  A    between atoms: _179  and  _180
REMARK   76  A    between atoms: _180  and  _181
REMARK   77  A    between atoms: _185  and  _187
REMARK   78  A    between atoms: _187  and  _188
REMARK   79  A    between atoms: _187  and  _190
REMARK   80  A    between atoms: _190  and  _191
REMARK   81  A    between atoms: _191  and  _192
REMARK   82  A    between atoms: _192  and  _193
REMARK   83  A    between atoms: _202  and  _204
REMARK   84  A    between atoms: _204  and  _205
REMARK   85  A    between atoms: _204  and  _207
REMARK   86  A    between atoms: _207  and  _208
REMARK   87  A    between atoms: _211  and  _213
REMARK   88  A    between atoms: _213  and  _214
REMARK   89  A    between atoms: _213  and  _216
REMARK   90  A    between atoms: _216  and  _217
REMARK   91  A    between atoms: _222  and  _223
REMARK   92  A    between atoms: _225  and  _227
REMARK   93  A    between atoms: _227  and  _228
REMARK   94  A    between atoms: _227  and  _230
REMARK   95  A    between atoms: _230  and  _231
REMARK   96  A    between atoms: _231  and  _232
REMARK   97  A    between atoms: _232  and  _233
REMARK   98  A    between atoms: _242  and  _244
REMARK   99  A    between atoms: _244  and  _245
REMARK  100  A    between atoms: _244  and  _247
REMARK  101  A    between atoms: _247  and  _248
REMARK  102  A    between atoms: _248  and  _249
REMARK  103  A    between atoms: _252  and  _254
REMARK  104  A    between atoms: _254  and  _255
REMARK  105  A    between atoms: _254  and  _257
REMARK  106  A    between atoms: _257  and  _258
REMARK  107  A    between atoms: _261  and  _263
REMARK  108  A    between atoms: _263  and  _264
REMARK  109  A    between atoms: _263  and  _266
REMARK  110  A    between atoms: _266  and  _267
REMARK  111  A    between atoms: _267  and  _268
REMARK  112  A    between atoms: _268  and  _269
REMARK  113  A    between atoms: _278  and  _280
REMARK  114  A    between atoms: _280  and  _281
REMARK  115  A    between atoms: _280  and  _283
REMARK  116  A    between atoms: _283  and  _284
REMARK  117  A    between atoms: _287  and  _289
REMARK  118  A    between atoms: _289  and  _290
REMARK  119  A    between atoms: _289  and  _292
REMARK  120  A    between atoms: _292  and  _293
REMARK  121  A    between atoms: _296  and  _298
REMARK  122  A    between atoms: _298  and  _299
REMARK  123  A    between atoms: _298  and  _301
REMARK  124  A    between atoms: _301  and  _302
REMARK  125  A    between atoms: _307  and  _309
REMARK  126  A    between atoms: _309  and  _310
REMARK  127  A    between atoms: _309  and  _312
REMARK  128  A    between atoms: _312  and  _313
REMARK  129  A    between atoms: _313  and  _314
REMARK  130  A    between atoms: _316  and  _318
REMARK  131  A    between atoms: _318  and  _319
REMARK  132  A    between atoms: _318  and  _321
REMARK  133  A    between atoms: _321  and  _322
REMARK  134  A    between atoms: _327  and  _329
REMARK  135  A    between atoms: _329  and  _330
REMARK  136  A    between atoms: _329  and  _332
REMARK  137  A    between atoms: _335  and  _337
REMARK  138  A    between atoms: _337  and  _338
REMARK  139  A    between atoms: _337  and  _340
REMARK  140  A    between atoms: _340  and  _341
REMARK  141  A    between atoms: _344  and  _346
REMARK  142  A    between atoms: _346  and  _347
REMARK  143  A    between atoms: _349  and  _351
REMARK  144  A    between atoms: _351  and  _352
REMARK  145  A    between atoms: _351  and  _354
REMARK  146  A    between atoms: _354  and  _355
REMARK  147  A    between atoms: _358  and  _360
REMARK  148  A    between atoms: _360  and  _361
REMARK  149  A    between atoms: _360  and  _363
REMARK  150  A    between atoms: _363  and  _364
REMARK  151  A    between atoms: _367  and  _369
REMARK  152  A    between atoms: _369  and  _370
REMARK  153  A    between atoms: _369  and  _372
REMARK  154  A    between atoms: _372  and  _373
REMARK  155  A    between atoms: _376  and  _378
REMARK  156  A    between atoms: _378  and  _379
REMARK  157  A    between atoms: _378  and  _381
REMARK  158  A    between atoms: _381  and  _382
REMARK  159  A    between atoms: _387  and  _388
REMARK  160  A    between atoms: _390  and  _392
REMARK  161  A    between atoms: _392  and  _393
REMARK  162  A    between atoms: _392  and  _395
REMARK  163  A    between atoms: _395  and  _396
REMARK  164  A    between atoms: _399  and  _401
REMARK  165  A    between atoms: _401  and  _402
REMARK  166  A    between atoms: _401  and  _404
REMARK  167  A    between atoms: _407  and  _409
REMARK  168  A    between atoms: _409  and  _410
REMARK  169  A    between atoms: _409  and  _412
REMARK  170  A    between atoms: _412  and  _413
REMARK  171  A    between atoms: _416  and  _418
REMARK  172  A    between atoms: _418  and  _419
REMARK  173  A    between atoms: _418  and  _421
REMARK  174  A    between atoms: _421  and  _422
REMARK  175  A    between atoms: _427  and  _429
REMARK  176  A    between atoms: _429  and  _430
REMARK  177  A    between atoms: _429  and  _432
REMARK  178  A    between atoms: _432  and  _433
REMARK  179  A    between atoms: _436  and  _438
REMARK  180  A    between atoms: _438  and  _439
REMARK  181  A    between atoms: _438  and  _441
REMARK  182  A    between atoms: _441  and  _442
REMARK  183  A    between atoms: _442  and  _443
REMARK  184  A    between atoms: _445  and  _447
REMARK  185  A    between atoms: _447  and  _448
REMARK  186  A    between atoms: _450  and  _452
REMARK  187  A    between atoms: _452  and  _453
REMARK  188  A    between atoms: _456  and  _458
REMARK  189  A    between atoms: _458  and  _459
REMARK  190  A    between atoms: _458  and  _461
REMARK  191  A    between atoms: _461  and  _462
REMARK  192  A    between atoms: _465  and  _467
REMARK  193  A    between atoms: _467  and  _468
REMARK  194  A    between atoms: _467  and  _470
REMARK  195  A    between atoms: _470  and  _471
REMARK  196  A    between atoms: _476  and  _477
REMARK  197  A    between atoms: _479  and  _481
REMARK  198  A    between atoms: _481  and  _482
REMARK  199  A    between atoms: _481  and  _484
REMARK  200  A    between atoms: _484  and  _485
REMARK  201  A    between atoms: _488  and  _490
REMARK  202  A    between atoms: _490  and  _491
REMARK  203  A    between atoms: _490  and  _493
REMARK  204  A    between atoms: _493  and  _494
REMARK  205  A    between atoms: _497  and  _499
REMARK  206  A    between atoms: _499  and  _500
REMARK  207  A    between atoms: _499  and  _502
REMARK  208  A    between atoms: _502  and  _503
REMARK  209  A    between atoms: _506  and  _508
REMARK  210  A    between atoms: _508  and  _509
REMARK  211  A    between atoms: _508  and  _511
REMARK  212  A    between atoms: _511  and  _512
REMARK  213  A    between atoms: _517  and  _519
REMARK  214  A    between atoms: _519  and  _520
REMARK  215  A    between atoms: _519  and  _522
REMARK  216  A    between atoms: _522  and  _523
REMARK  217  A    between atoms: _523  and  _524
REMARK  218  A    between atoms: _524  and  _525
REMARK  219  A    between atoms: _534  and  _536
REMARK  220  A    between atoms: _536  and  _537
REMARK  221  A    between atoms: _536  and  _539
REMARK  222  A    between atoms: _539  and  _540
REMARK  223  A    between atoms: _543  and  _545
REMARK  224  A    between atoms: _545  and  _546
REMARK  225  A    between atoms: _545  and  _548
REMARK  226  A    between atoms: _548  and  _549
REMARK  227  A    between atoms: _552  and  _554
REMARK  228  A    between atoms: _554  and  _555
REMARK  229  A    between atoms: _554  and  _557
REMARK  230  A    between atoms: _557  and  _558
REMARK  231  A    between atoms: _563  and  _565
REMARK  232  A    between atoms: _565  and  _566
REMARK  233  A    between atoms: _565  and  _568
REMARK  234  A    between atoms: _568  and  _569
REMARK  235  A    between atoms: _572  and  _574
REMARK  236  A    between atoms: _574  and  _575
REMARK  237  A    between atoms: _578  and  _580
REMARK  238  A    between atoms: _580  and  _581
REMARK  239  A    between atoms: _580  and  _583
REMARK  240  A    between atoms: _583  and  _584
REMARK  241  A    between atoms: _584  and  _585
REMARK  242  A    between atoms: _585  and  _586
REMARK  243  A    between atoms: _586  and  _587
REMARK  244  A    between atoms: _591  and  _593
REMARK  245  A    between atoms: _593  and  _594
REMARK  246  A    between atoms: _593  and  _596
REMARK  247  A    between atoms: _596  and  _597
REMARK  248  A    between atoms: _600  and  _602
REMARK  249  A    between atoms: _602  and  _603
REMARK  250  A    between atoms: _602  and  _605
REMARK  251  A    between atoms: _605  and  _606
REMARK  252  A    between atoms: _609  and  _611
REMARK  253  A    between atoms: _611  and  _612
REMARK  254  A    between atoms: _611  and  _614
REMARK  255  A    between atoms: _614  and  _615
REMARK  256  A    between atoms: _618  and  _620
REMARK  257  A    between atoms: _620  and  _621
REMARK  258  A    between atoms: _620  and  _623
REMARK  259  A    between atoms: _623  and  _624
REMARK  260  A    between atoms: _630  and  _632
REMARK  261  A    between atoms: _632  and  _633
REMARK  262  A    between atoms: _635  and  _637
REMARK  263  A    between atoms: _637  and  _638
REMARK  264  A    between atoms: _637  and  _640
REMARK  265  A    between atoms: _640  and  _641
REMARK  266  A    between atoms: _644  and  _646
REMARK  267  A    between atoms: _646  and  _647
REMARK  268  A    between atoms: _646  and  _649
REMARK  269  A    between atoms: _649  and  _650
REMARK  270  A    between atoms: _653  and  _655
REMARK  271  A    between atoms: _655  and  _656
REMARK  272  A    between atoms: _655  and  _658
REMARK  273  A    between atoms: _658  and  _659
REMARK  274  A    between atoms: _664  and  _665
REMARK  275  A    between atoms: _667  and  _669
REMARK  276  A    between atoms: _669  and  _670
REMARK  277  A    between atoms: _669  and  _672
REMARK  278  A    between atoms: _672  and  _673
REMARK  279  A    between atoms: _673  and  _674
REMARK                            x       y       z     vdW  Elec       q    Type
REMARK                         _______ _______ _______ _____ _____    ______ ____
ROOT
ATOM      1  O   HOH     1      15.475 -10.916 -13.181  0.00  0.00    +0.000 OA
ENDROOT
TORSDOF 0
REMARK  Name = ../refined-set-2016/3gcu/3gcu_pocket.pdb
REMARK  279 active torsions:
REMARK  status: ('A' for Active; 'I' for Inactive)
REMARK    1  A    between atoms: _2  and  _3
REMARK    2  A    between atoms: _8  and  _10
REMARK    3  A    between atoms: _10  and  _11
REMARK    4  A    between atoms: _10  and  _13
REMARK    5  A    between atoms: _16  and  _18
REMARK    6  A    between atoms: _18  and  _19
REMARK    7  A    between atoms: _21  and  _23
REMARK    8  A    between atoms: _23  and  _24
REMARK    9  A    between atoms: _23  and  _26
REMARK   10  A    between atoms: _26  and  _27
REMARK   11  A    between atoms: _29  and  _31
REMARK   12  A    between atoms: _31  and  _32
REMARK   13  A    between atoms: _31  and  _34
REMARK   14  A    between atoms: _34  and  _35
REMARK   15  A    between atoms: _40  and  _41
REMARK   16  A    between atoms: _43  and  _45
REMARK   17  A    between atoms: _45  and  _46
REMARK   18  A    between atoms: _45  and  _48
REMARK   19  A    between atoms: _48  and  _49
REMARK   20  A    between atoms: _51  and  _53
REMARK   21  A    between atoms: _53  and  _54
REMARK   22  A    between atoms: _53  and  _56
REMARK   23  A    between atoms: _59  and  _61
REMARK   24  A    between atoms: _61  and  _62
REMARK   25  A    between atoms: _61  and  _64
REMARK   26  A    between atoms: _66  and  _68
REMARK   27  A    between atoms: _68  and  _69
REMARK   28  A    between atoms: _72  and  _74
REMARK   29  A    between atoms: _74  and  _75
REMARK   30  A    between atoms: _78  and  _80
REMARK   31  A    between atoms: _80  and  _81
REMARK   32  A    between atoms: _80  and  _83
REMARK   33  A    between atoms: _83  and  _84
REMARK   34  A    between atoms: _84  and  _85
REMARK   35  A    between atoms: _85  and  _86
REMARK   36  A    between atoms: _95  and  _97
REMARK   37  A    between atoms: _97  and  _98
REMARK   38  A    between atoms: _97  and  _100
REMARK   39  A    between atoms: _103  and  _105
REMARK   40  A    between atoms: _105  and  _106
REMARK   41  A    between atoms: _109  and  _111
REMARK   42  A    between atoms: _111  and  _112
REMARK   43  A    between atoms: _111  and  _114
REMARK   44  A    between atoms: _117  and  _119
REMARK   45  A    between atoms: _119  and  _120
REMARK   46  A    between atoms: _119  and  _122
REMARK   47  A    between atoms: _122  and  _123
REMARK   48  A    between atoms: _123  and  _124
REMARK   49  A    between atoms: _124  and  _125
REMARK   50  A    between atoms: _125  and  _126
REMARK   51  A    between atoms: _130  and  _132
REMARK   52  A    between atoms: _132  and  _133
REMARK   53  A    between atoms: _132  and  _135
REMARK   54  A    between atoms: _135  and  _136
REMARK   55  A    between atoms: _136  and  _137
REMARK   56  A    between atoms: _137  and  _138
REMARK   57  A    between atoms: _138  and  _139
REMARK   58  A    between atoms: _143  and  _145
REMARK   59  A    between atoms: _145  and  _146
REMARK   60  A    between atoms: _145  and  _148
REMARK   61  A    between atoms: _148  and  _149
REMARK   62  A    between atoms: _152  and  _154
REMARK   63  A    between atoms: _154  and  _155
REMARK   64  A    between atoms: _154  and  _157
REMARK   65  A    between atoms: _157  and  _158
REMARK   66  A    between atoms: _161  and  _163
REMARK   67  A    between atoms: _163  and  _164
REMARK   68  A    between atoms: _163  and  _166
REMARK   69  A    between atoms: _166  and  _167
REMARK   70  A    between atoms: _172  and  _174
REMARK   71  A    between atoms: _174  and  _175
REMARK   72  A    between atoms: _174  and  _177
REMARK   73  A    between atoms: _177  and  _178
REMARK   74  A    between atoms: _178  and  _179
REMARK   75  A    between atoms: _179  and  _180
REMARK   76  A    between atoms: _180  and  _181
REMARK   77  A    between atoms: _185  and  _187
REMARK   78  A    between atoms: _187  and  _188
REMARK   79  A    between atoms: _187  and  _190
REMARK   80  A    between atoms: _190  and  _191
REMARK   81  A    between atoms: _191  and  _192
REMARK   82  A    between atoms: _192  and  _193
REMARK   83  A    between atoms: _202  and  _204
REMARK   84  A    between atoms: _204  and  _205
REMARK   85  A    between atoms: _204  and  _207
REMARK   86  A    between atoms: _207  and  _208
REMARK   87  A    between atoms: _211  and  _213
REMARK   88  A    between atoms: _213  and  _214
REMARK   89  A    between atoms: _213  and  _216
REMARK   90  A    between atoms: _216  and  _217
REMARK   91  A    between atoms: _222  and  _223
REMARK   92  A    between atoms: _225  and  _227
REMARK   93  A    between atoms: _227  and  _228
REMARK   94  A    between atoms: _227  and  _230
REMARK   95  A    between atoms: _230  and  _231
REMARK   96  A    between atoms: _231  and  _232
REMARK   97  A    between atoms: _232  and  _233
REMARK   98  A    between atoms: _242  and  _244
REMARK   99  A    between atoms: _244  and  _245
REMARK  100  A    between atoms: _244  and  _247
REMARK  101  A    between atoms: _247  and  _248
REMARK  102  A    between atoms: _248  and  _249
REMARK  103  A    between atoms: _252  and  _254
REMARK  104  A    between atoms: _254  and  _255
REMARK  105  A    between atoms: _254  and  _257
REMARK  106  A    between atoms: _257  and  _258
REMARK  107  A    between atoms: _261  and  _263
REMARK  108  A    between atoms: _263  and  _264
REMARK  109  A    between atoms: _263  and  _266
REMARK  110  A    between atoms: _266  and  _267
REMARK  111  A    between atoms: _267  and  _268
REMARK  112  A    between atoms: _268  and  _269
REMARK  113  A    between atoms: _278  and  _280
REMARK  114  A    between atoms: _280  and  _281
REMARK  115  A    between atoms: _280  and  _283
REMARK  116  A    between atoms: _283  and  _284
REMARK  117  A    between atoms: _287  and  _289
REMARK  118  A    between atoms: _289  and  _290
REMARK  119  A    between atoms: _289  and  _292
REMARK  120  A    between atoms: _292  and  _293
REMARK  121  A    between atoms: _296  and  _298
REMARK  122  A    between atoms: _298  and  _299
REMARK  123  A    between atoms: _298  and  _301
REMARK  124  A    between atoms: _301  and  _302
REMARK  125  A    between atoms: _307  and  _309
REMARK  126  A    between atoms: _309  and  _310
REMARK  127  A    between atoms: _309  and  _312
REMARK  128  A    between atoms: _312  and  _313
REMARK  129  A    between atoms: _313  and  _314
REMARK  130  A    between atoms: _316  and  _318
REMARK  131  A    between atoms: _318  and  _319
REMARK  132  A    between atoms: _318  and  _321
REMARK  133  A    between atoms: _321  and  _322
REMARK  134  A    between atoms: _327  and  _329
REMARK  135  A    between atoms: _329  and  _330
REMARK  136  A    between atoms: _329  and  _332
REMARK  137  A    between atoms: _335  and  _337
REMARK  138  A    between atoms: _337  and  _338
REMARK  139  A    between atoms: _337  and  _340
REMARK  140  A    between atoms: _340  and  _341
REMARK  141  A    between atoms: _344  and  _346
REMARK  142  A    between atoms: _346  and  _347
REMARK  143  A    between atoms: _349  and  _351
REMARK  144  A    between atoms: _351  and  _352
REMARK  145  A    between atoms: _351  and  _354
REMARK  146  A    between atoms: _354  and  _355
REMARK  147  A    between atoms: _358  and  _360
REMARK  148  A    between atoms: _360  and  _361
REMARK  149  A    between atoms: _360  and  _363
REMARK  150  A    between atoms: _363  and  _364
REMARK  151  A    between atoms: _367  and  _369
REMARK  152  A    between atoms: _369  and  _370
REMARK  153  A    between atoms: _369  and  _372
REMARK  154  A    between atoms: _372  and  _373
REMARK  155  A    between atoms: _376  and  _378
REMARK  156  A    between atoms: _378  and  _379
REMARK  157  A    between atoms: _378  and  _381
REMARK  158  A    between atoms: _381  and  _382
REMARK  159  A    between atoms: _387  and  _388
REMARK  160  A    between atoms: _390  and  _392
REMARK  161  A    between atoms: _392  and  _393
REMARK  162  A    between atoms: _392  and  _395
REMARK  163  A    between atoms: _395  and  _396
REMARK  164  A    between atoms: _399  and  _401
REMARK  165  A    between atoms: _401  and  _402
REMARK  166  A    between atoms: _401  and  _404
REMARK  167  A    between atoms: _407  and  _409
REMARK  168  A    between atoms: _409  and  _410
REMARK  169  A    between atoms: _409  and  _412
REMARK  170  A    between atoms: _412  and  _413
REMARK  171  A    between atoms: _416  and  _418
REMARK  172  A    between atoms: _418  and  _419
REMARK  173  A    between atoms: _418  and  _421
REMARK  174  A    between atoms: _421  and  _422
REMARK  175  A    between atoms: _427  and  _429
REMARK  176  A    between atoms: _429  and  _430
REMARK  177  A    between atoms: _429  and  _432
REMARK  178  A    between atoms: _432  and  _433
REMARK  179  A    between atoms: _436  and  _438
REMARK  180  A    between atoms: _438  and  _439
REMARK  181  A    between atoms: _438  and  _441
REMARK  182  A    between atoms: _441  and  _442
REMARK  183  A    between atoms: _442  and  _443
REMARK  184  A    between atoms: _445  and  _447
REMARK  185  A    between atoms: _447  and  _448
REMARK  186  A    between atoms: _450  and  _452
REMARK  187  A    between atoms: _452  and  _453
REMARK  188  A    between atoms: _456  and  _458
REMARK  189  A    between atoms: _458  and  _459
REMARK  190  A    between atoms: _458  and  _461
REMARK  191  A    between atoms: _461  and  _462
REMARK  192  A    between atoms: _465  and  _467
REMARK  193  A    between atoms: _467  and  _468
REMARK  194  A    between atoms: _467  and  _470
REMARK  195  A    between atoms: _470  and  _471
REMARK  196  A    between atoms: _476  and  _477
REMARK  197  A    between atoms: _479  and  _481
REMARK  198  A    between atoms: _481  and  _482
REMARK  199  A    between atoms: _481  and  _484
REMARK  200  A    between atoms: _484  and  _485
REMARK  201  A    between atoms: _488  and  _490
REMARK  202  A    between atoms: _490  and  _491
REMARK  203  A    between atoms: _490  and  _493
REMARK  204  A    between atoms: _493  and  _494
REMARK  205  A    between atoms: _497  and  _499
REMARK  206  A    between atoms: _499  and  _500
REMARK  207  A    between atoms: _499  and  _502
REMARK  208  A    between atoms: _502  and  _503
REMARK  209  A    between atoms: _506  and  _508
REMARK  210  A    between atoms: _508  and  _509
REMARK  211  A    between atoms: _508  and  _511
REMARK  212  A    between atoms: _511  and  _512
REMARK  213  A    between atoms: _517  and  _519
REMARK  214  A    between atoms: _519  and  _520
REMARK  215  A    between atoms: _519  and  _522
REMARK  216  A    between atoms: _522  and  _523
REMARK  217  A    between atoms: _523  and  _524
REMARK  218  A    between atoms: _524  and  _525
REMARK  219  A    between atoms: _534  and  _536
REMARK  220  A    between atoms: _536  and  _537
REMARK  221  A    between atoms: _536  and  _539
REMARK  222  A    between atoms: _539  and  _540
REMARK  223  A    between atoms: _543  and  _545
REMARK  224  A    between atoms: _545  and  _546
REMARK  225  A    between atoms: _545  and  _548
REMARK  226  A    between atoms: _548  and  _549
REMARK  227  A    between atoms: _552  and  _554
REMARK  228  A    between atoms: _554  and  _555
REMARK  229  A    between atoms: _554  and  _557
REMARK  230  A    between atoms: _557  and  _558
REMARK  231  A    between atoms: _563  and  _565
REMARK  232  A    between atoms: _565  and  _566
REMARK  233  A    between atoms: _565  and  _568
REMARK  234  A    between atoms: _568  and  _569
REMARK  235  A    between atoms: _572  and  _574
REMARK  236  A    between atoms: _574  and  _575
REMARK  237  A    between atoms: _578  and  _580
REMARK  238  A    between atoms: _580  and  _581
REMARK  239  A    between atoms: _580  and  _583
REMARK  240  A    between atoms: _583  and  _584
REMARK  241  A    between atoms: _584  and  _585
REMARK  242  A    between atoms: _585  and  _586
REMARK  243  A    between atoms: _586  and  _587
REMARK  244  A    between atoms: _591  and  _593
REMARK  245  A    between atoms: _593  and  _594
REMARK  246  A    between atoms: _593  and  _596
REMARK  247  A    between atoms: _596  and  _597
REMARK  248  A    between atoms: _600  and  _602
REMARK  249  A    between atoms: _602  and  _603
REMARK  250  A    between atoms: _602  and  _605
REMARK  251  A    between atoms: _605  and  _606
REMARK  252  A    between atoms: _609  and  _611
REMARK  253  A    between atoms: _611  and  _612
REMARK  254  A    between atoms: _611  and  _614
REMARK  255  A    between atoms: _614  and  _615
REMARK  256  A    between atoms: _618  and  _620
REMARK  257  A    between atoms: _620  and  _621
REMARK  258  A    between atoms: _620  and  _623
REMARK  259  A    between atoms: _623  and  _624
REMARK  260  A    between atoms: _630  and  _632
REMARK  261  A    between atoms: _632  and  _633
REMARK  262  A    between atoms: _635  and  _637
REMARK  263  A    between atoms: _637  and  _638
REMARK  264  A    between atoms: _637  and  _640
REMARK  265  A    between atoms: _640  and  _641
REMARK  266  A    between atoms: _644  and  _646
REMARK  267  A    between atoms: _646  and  _647
REMARK  268  A    between atoms: _646  and  _649
REMARK  269  A    between atoms: _649  and  _650
REMARK  270  A    between atoms: _653  and  _655
REMARK  271  A    between atoms: _655  and  _656
REMARK  272  A    between atoms: _655  and  _658
REMARK  273  A    between atoms: _658  and  _659
REMARK  274  A    between atoms: _664  and  _665
REMARK  275  A    between atoms: _667  and  _669
REMARK  276  A    between atoms: _669  and  _670
REMARK  277  A    between atoms: _669  and  _672
REMARK  278  A    between atoms: _672  and  _673
REMARK  279  A    between atoms: _673  and  _674
REMARK                            x       y       z     vdW  Elec       q    Type
REMARK                         _______ _______ _______ _____ _____    ______ ____
ROOT
ATOM      1  O   HOH     1      18.642  -8.383  -8.685  0.00  0.00    +0.000 OA
ENDROOT
TORSDOF 0
