REMARK  Name = ../refined-set-2016/4j74/4j74_pocket.pdb
REMARK  137 active torsions:
REMARK  status: ('A' for Active; 'I' for Inactive)
REMARK    1  A    between atoms: _1  and  _3
REMARK    2  A    between atoms: _3  and  _4
REMARK    3  A    between atoms: _3  and  _6
REMARK    4  A    between atoms: _6  and  _7
REMARK    5  A    between atoms: _7  and  _8
REMARK    6  A    between atoms: _10  and  _12
REMARK    7  A    between atoms: _12  and  _13
REMARK    8  A    between atoms: _12  and  _15
REMARK    9  A    between atoms: _15  and  _16
REMARK   10  A    between atoms: _16  and  _17
REMARK   11  A    between atoms: _17  and  _18
REMARK   12  A    between atoms: _18  and  _19
REMARK   13  A    between atoms: _23  and  _25
REMARK   14  A    between atoms: _25  and  _26
REMARK   15  A    between atoms: _25  and  _28
REMARK   16  A    between atoms: _31  and  _33
REMARK   17  A    between atoms: _33  and  _34
REMARK   18  A    between atoms: _33  and  _36
REMARK   19  A    between atoms: _36  and  _37
REMARK   20  A    between atoms: _40  and  _42
REMARK   21  A    between atoms: _42  and  _43
REMARK   22  A    between atoms: _42  and  _45
REMARK   23  A    between atoms: _45  and  _46
REMARK   24  A    between atoms: _51  and  _52
REMARK   25  A    between atoms: _54  and  _56
REMARK   26  A    between atoms: _56  and  _57
REMARK   27  A    between atoms: _56  and  _59
REMARK   28  A    between atoms: _59  and  _60
REMARK   29  A    between atoms: _65  and  _67
REMARK   30  A    between atoms: _67  and  _68
REMARK   31  A    between atoms: _67  and  _70
REMARK   32  A    between atoms: _70  and  _71
REMARK   33  A    between atoms: _74  and  _76
REMARK   34  A    between atoms: _76  and  _77
REMARK   35  A    between atoms: _79  and  _81
REMARK   36  A    between atoms: _81  and  _82
REMARK   37  A    between atoms: _81  and  _84
REMARK   38  A    between atoms: _84  and  _85
REMARK   39  A    between atoms: _85  and  _86
REMARK   40  A    between atoms: _91  and  _93
REMARK   41  A    between atoms: _93  and  _94
REMARK   42  A    between atoms: _93  and  _96
REMARK   43  A    between atoms: _96  and  _97
REMARK   44  A    between atoms: _102  and  _103
REMARK   45  A    between atoms: _105  and  _107
REMARK   46  A    between atoms: _107  and  _108
REMARK   47  A    between atoms: _107  and  _110
REMARK   48  A    between atoms: _110  and  _111
REMARK   49  A    between atoms: _114  and  _116
REMARK   50  A    between atoms: _116  and  _117
REMARK   51  A    between atoms: _116  and  _119
REMARK   52  A    between atoms: _119  and  _120
REMARK   53  A    between atoms: _120  and  _121
REMARK   54  A    between atoms: _123  and  _125
REMARK   55  A    between atoms: _125  and  _126
REMARK   56  A    between atoms: _125  and  _128
REMARK   57  A    between atoms: _128  and  _129
REMARK   58  A    between atoms: _134  and  _135
REMARK   59  A    between atoms: _137  and  _139
REMARK   60  A    between atoms: _139  and  _140
REMARK   61  A    between atoms: _139  and  _142
REMARK   62  A    between atoms: _142  and  _143
REMARK   63  A    between atoms: _143  and  _144
REMARK   64  A    between atoms: _149  and  _151
REMARK   65  A    between atoms: _151  and  _152
REMARK   66  A    between atoms: _151  and  _154
REMARK   67  A    between atoms: _154  and  _155
REMARK   68  A    between atoms: _160  and  _162
REMARK   69  A    between atoms: _162  and  _163
REMARK   70  A    between atoms: _162  and  _165
REMARK   71  A    between atoms: _168  and  _170
REMARK   72  A    between atoms: _170  and  _171
REMARK   73  A    between atoms: _170  and  _173
REMARK   74  A    between atoms: _173  and  _174
REMARK   75  A    between atoms: _177  and  _179
REMARK   76  A    between atoms: _179  and  _180
REMARK   77  A    between atoms: _179  and  _182
REMARK   78  A    between atoms: _182  and  _183
REMARK   79  A    between atoms: _189  and  _191
REMARK   80  A    between atoms: _191  and  _192
REMARK   81  A    between atoms: _191  and  _194
REMARK   82  A    between atoms: _194  and  _195
REMARK   83  A    between atoms: _201  and  _203
REMARK   84  A    between atoms: _203  and  _204
REMARK   85  A    between atoms: _203  and  _206
REMARK   86  A    between atoms: _206  and  _207
REMARK   87  A    between atoms: _209  and  _211
REMARK   88  A    between atoms: _211  and  _212
REMARK   89  A    between atoms: _211  and  _214
REMARK   90  A    between atoms: _217  and  _219
REMARK   91  A    between atoms: _219  and  _220
REMARK   92  A    between atoms: _219  and  _222
REMARK   93  A    between atoms: _222  and  _223
REMARK   94  A    between atoms: _223  and  _224
REMARK   95  A    between atoms: _224  and  _225
REMARK   96  A    between atoms: _225  and  _226
REMARK   97  A    between atoms: _230  and  _232
REMARK   98  A    between atoms: _232  and  _233
REMARK   99  A    between atoms: _232  and  _235
REMARK  100  A    between atoms: _235  and  _236
REMARK  101  A    between atoms: _236  and  _237
REMARK  102  A    between atoms: _240  and  _242
REMARK  103  A    between atoms: _242  and  _243
REMARK  104  A    between atoms: _242  and  _245
REMARK  105  A    between atoms: _245  and  _246
REMARK  106  A    between atoms: _251  and  _253
REMARK  107  A    between atoms: _253  and  _254
REMARK  108  A    between atoms: _253  and  _256
REMARK  109  A    between atoms: _256  and  _257
REMARK  110  A    between atoms: _257  and  _258
REMARK  111  A    between atoms: _258  and  _259
REMARK  112  A    between atoms: _268  and  _270
REMARK  113  A    between atoms: _270  and  _271
REMARK  114  A    between atoms: _270  and  _273
REMARK  115  A    between atoms: _273  and  _274
REMARK  116  A    between atoms: _274  and  _275
REMARK  117  A    between atoms: _275  and  _276
REMARK  118  A    between atoms: _285  and  _287
REMARK  119  A    between atoms: _287  and  _288
REMARK  120  A    between atoms: _287  and  _290
REMARK  121  A    between atoms: _290  and  _291
REMARK  122  A    between atoms: _294  and  _296
REMARK  123  A    between atoms: _296  and  _297
REMARK  124  A    between atoms: _296  and  _299
REMARK  125  A    between atoms: _299  and  _300
REMARK  126  A    between atoms: _305  and  _306
REMARK  127  A    between atoms: _308  and  _310
REMARK  128  A    between atoms: _310  and  _311
REMARK  129  A    between atoms: _314  and  _316
REMARK  130  A    between atoms: _316  and  _317
REMARK  131  A    between atoms: _316  and  _319
REMARK  132  A    between atoms: _319  and  _320
REMARK  133  A    between atoms: _320  and  _321
REMARK  134  A    between atoms: _323  and  _325
REMARK  135  A    between atoms: _325  and  _326
REMARK  136  A    between atoms: _325  and  _328
REMARK  137  A    between atoms: _328  and  _329
REMARK                            x       y       z     vdW  Elec       q    Type
REMARK                         _______ _______ _______ _____ _____    ______ ____
ROOT
ATOM      1  C   MET A   1      -5.082 -11.470  -5.521  0.00  0.00    +0.238 C 
ATOM      2  N   LYS A   2      -4.147 -10.946  -4.735  0.00  0.00    -0.298 N 
ATOM      3  H   LYS A   2      -3.147 -11.178  -4.899  0.00  0.00    +0.150 HD
ATOM      4  O   MET A   1      -6.280 -11.235  -5.377  0.00  0.00    -0.274 OA
ENDROOT
BRANCH   1   5
ATOM      5  CA  MET A   1      -4.602 -12.374  -6.648  0.00  0.00    +0.146 C 
BRANCH   5   6
ATOM      6  N   MET A   1      -3.345 -11.884  -7.187  0.00  0.00    -0.238 NA
ATOM      7  H   MET A   1      -2.496 -12.484  -7.164  0.00  0.00    +0.142 HD
ENDBRANCH   5   6
BRANCH   5   8
ATOM      8  CB  MET A   1      -4.455 -13.810  -6.142  0.00  0.00    +0.038 C 
BRANCH   8   9
ATOM      9  CG  MET A   1      -4.515 -14.869  -7.238  0.00  0.00    +0.060 C 
BRANCH   9  10
ATOM     10  SD  MET A   1      -6.070 -14.863  -8.161  0.00  0.00    -0.139 S 
ATOM     11  CE  MET A   1      -7.236 -15.254  -6.857  0.00  0.00    +0.069 C 
ENDBRANCH   9  10
ENDBRANCH   8   9
ENDBRANCH   5   8
ENDBRANCH   1   5
BRANCH   2  12
ATOM     12  CA  LYS A   2      -4.511 -10.050  -3.645  0.00  0.00    +0.137 C 
BRANCH  12  13
ATOM     13  C   LYS A   2      -5.243  -8.828  -4.186  0.00  0.00    +0.227 C 
ATOM     14  O   LYS A   2      -6.222  -8.373  -3.598  0.00  0.00    -0.286 OA
ENDBRANCH  12  13
BRANCH  12  15
ATOM     15  CB  LYS A   2      -3.267  -9.602  -2.871  0.00  0.00    +0.028 C 
BRANCH  15  16
ATOM     16  CG  LYS A   2      -3.567  -8.603  -1.760  0.00  0.00    -0.000 C 
BRANCH  16  17
ATOM     17  CD  LYS A   2      -2.319  -8.257  -0.960  0.00  0.00    -0.024 C 
BRANCH  17  18
ATOM     18  CE  LYS A   2      -2.658  -7.380   0.240  0.00  0.00    -0.086 C 
BRANCH  18  19
ATOM     19  NZ  LYS A   2      -1.432  -6.928   0.961  0.00  0.00    +0.380 N 
ATOM     20  HZ1 LYS A   2      -1.706  -6.334   1.770  0.00  0.00    -0.089 HD
ATOM     21  HZ2 LYS A   2      -0.905  -7.758   1.301  0.00  0.00    -0.089 HD
ATOM     22  HZ3 LYS A   2      -0.833  -6.378   0.313  0.00  0.00    -0.089 HD
ENDBRANCH  18  19
ENDBRANCH  17  18
ENDBRANCH  16  17
ENDBRANCH  15  16
ENDBRANCH  12  15
ENDBRANCH   2  12
TORSDOF 12
REMARK  Name = ../refined-set-2016/4j74/4j74_pocket.pdb
REMARK  137 active torsions:
REMARK  status: ('A' for Active; 'I' for Inactive)
REMARK    1  A    between atoms: _1  and  _3
REMARK    2  A    between atoms: _3  and  _4
REMARK    3  A    between atoms: _3  and  _6
REMARK    4  A    between atoms: _6  and  _7
REMARK    5  A    between atoms: _7  and  _8
REMARK    6  A    between atoms: _10  and  _12
REMARK    7  A    between atoms: _12  and  _13
REMARK    8  A    between atoms: _12  and  _15
REMARK    9  A    between atoms: _15  and  _16
REMARK   10  A    between atoms: _16  and  _17
REMARK   11  A    between atoms: _17  and  _18
REMARK   12  A    between atoms: _18  and  _19
REMARK   13  A    between atoms: _23  and  _25
REMARK   14  A    between atoms: _25  and  _26
REMARK   15  A    between atoms: _25  and  _28
REMARK   16  A    between atoms: _31  and  _33
REMARK   17  A    between atoms: _33  and  _34
REMARK   18  A    between atoms: _33  and  _36
REMARK   19  A    between atoms: _36  and  _37
REMARK   20  A    between atoms: _40  and  _42
REMARK   21  A    between atoms: _42  and  _43
REMARK   22  A    between atoms: _42  and  _45
REMARK   23  A    between atoms: _45  and  _46
REMARK   24  A    between atoms: _51  and  _52
REMARK   25  A    between atoms: _54  and  _56
REMARK   26  A    between atoms: _56  and  _57
REMARK   27  A    between atoms: _56  and  _59
REMARK   28  A    between atoms: _59  and  _60
REMARK   29  A    between atoms: _65  and  _67
REMARK   30  A    between atoms: _67  and  _68
REMARK   31  A    between atoms: _67  and  _70
REMARK   32  A    between atoms: _70  and  _71
REMARK   33  A    between atoms: _74  and  _76
REMARK   34  A    between atoms: _76  and  _77
REMARK   35  A    between atoms: _79  and  _81
REMARK   36  A    between atoms: _81  and  _82
REMARK   37  A    between atoms: _81  and  _84
REMARK   38  A    between atoms: _84  and  _85
REMARK   39  A    between atoms: _85  and  _86
REMARK   40  A    between atoms: _91  and  _93
REMARK   41  A    between atoms: _93  and  _94
REMARK   42  A    between atoms: _93  and  _96
REMARK   43  A    between atoms: _96  and  _97
REMARK   44  A    between atoms: _102  and  _103
REMARK   45  A    between atoms: _105  and  _107
REMARK   46  A    between atoms: _107  and  _108
REMARK   47  A    between atoms: _107  and  _110
REMARK   48  A    between atoms: _110  and  _111
REMARK   49  A    between atoms: _114  and  _116
REMARK   50  A    between atoms: _116  and  _117
REMARK   51  A    between atoms: _116  and  _119
REMARK   52  A    between atoms: _119  and  _120
REMARK   53  A    between atoms: _120  and  _121
REMARK   54  A    between atoms: _123  and  _125
REMARK   55  A    between atoms: _125  and  _126
REMARK   56  A    between atoms: _125  and  _128
REMARK   57  A    between atoms: _128  and  _129
REMARK   58  A    between atoms: _134  and  _135
REMARK   59  A    between atoms: _137  and  _139
REMARK   60  A    between atoms: _139  and  _140
REMARK   61  A    between atoms: _139  and  _142
REMARK   62  A    between atoms: _142  and  _143
REMARK   63  A    between atoms: _143  and  _144
REMARK   64  A    between atoms: _149  and  _151
REMARK   65  A    between atoms: _151  and  _152
REMARK   66  A    between atoms: _151  and  _154
REMARK   67  A    between atoms: _154  and  _155
REMARK   68  A    between atoms: _160  and  _162
REMARK   69  A    between atoms: _162  and  _163
REMARK   70  A    between atoms: _162  and  _165
REMARK   71  A    between atoms: _168  and  _170
REMARK   72  A    between atoms: _170  and  _171
REMARK   73  A    between atoms: _170  and  _173
REMARK   74  A    between atoms: _173  and  _174
REMARK   75  A    between atoms: _177  and  _179
REMARK   76  A    between atoms: _179  and  _180
REMARK   77  A    between atoms: _179  and  _182
REMARK   78  A    between atoms: _182  and  _183
REMARK   79  A    between atoms: _189  and  _191
REMARK   80  A    between atoms: _191  and  _192
REMARK   81  A    between atoms: _191  and  _194
REMARK   82  A    between atoms: _194  and  _195
REMARK   83  A    between atoms: _201  and  _203
REMARK   84  A    between atoms: _203  and  _204
REMARK   85  A    between atoms: _203  and  _206
REMARK   86  A    between atoms: _206  and  _207
REMARK   87  A    between atoms: _209  and  _211
REMARK   88  A    between atoms: _211  and  _212
REMARK   89  A    between atoms: _211  and  _214
REMARK   90  A    between atoms: _217  and  _219
REMARK   91  A    between atoms: _219  and  _220
REMARK   92  A    between atoms: _219  and  _222
REMARK   93  A    between atoms: _222  and  _223
REMARK   94  A    between atoms: _223  and  _224
REMARK   95  A    between atoms: _224  and  _225
REMARK   96  A    between atoms: _225  and  _226
REMARK   97  A    between atoms: _230  and  _232
REMARK   98  A    between atoms: _232  and  _233
REMARK   99  A    between atoms: _232  and  _235
REMARK  100  A    between atoms: _235  and  _236
REMARK  101  A    between atoms: _236  and  _237
REMARK  102  A    between atoms: _240  and  _242
REMARK  103  A    between atoms: _242  and  _243
REMARK  104  A    between atoms: _242  and  _245
REMARK  105  A    between atoms: _245  and  _246
REMARK  106  A    between atoms: _251  and  _253
REMARK  107  A    between atoms: _253  and  _254
REMARK  108  A    between atoms: _253  and  _256
REMARK  109  A    between atoms: _256  and  _257
REMARK  110  A    between atoms: _257  and  _258
REMARK  111  A    between atoms: _258  and  _259
REMARK  112  A    between atoms: _268  and  _270
REMARK  113  A    between atoms: _270  and  _271
REMARK  114  A    between atoms: _270  and  _273
REMARK  115  A    between atoms: _273  and  _274
REMARK  116  A    between atoms: _274  and  _275
REMARK  117  A    between atoms: _275  and  _276
REMARK  118  A    between atoms: _285  and  _287
REMARK  119  A    between atoms: _287  and  _288
REMARK  120  A    between atoms: _287  and  _290
REMARK  121  A    between atoms: _290  and  _291
REMARK  122  A    between atoms: _294  and  _296
REMARK  123  A    between atoms: _296  and  _297
REMARK  124  A    between atoms: _296  and  _299
REMARK  125  A    between atoms: _299  and  _300
REMARK  126  A    between atoms: _305  and  _306
REMARK  127  A    between atoms: _308  and  _310
REMARK  128  A    between atoms: _310  and  _311
REMARK  129  A    between atoms: _314  and  _316
REMARK  130  A    between atoms: _316  and  _317
REMARK  131  A    between atoms: _316  and  _319
REMARK  132  A    between atoms: _319  and  _320
REMARK  133  A    between atoms: _320  and  _321
REMARK  134  A    between atoms: _323  and  _325
REMARK  135  A    between atoms: _325  and  _326
REMARK  136  A    between atoms: _325  and  _328
REMARK  137  A    between atoms: _328  and  _329
REMARK                            x       y       z     vdW  Elec       q    Type
REMARK                         _______ _______ _______ _____ _____    ______ ____
ROOT
ATOM      1  C   LEU A   5     -14.608  -7.277  -4.317  0.00  0.00    +0.241 C 
ATOM      2  N   GLY A   6     -13.793  -7.166  -3.275  0.00  0.00    -0.295 N 
ATOM      3  H   GLY A   6     -12.779  -7.367  -3.385  0.00  0.00    +0.150 HD
ATOM      4  O   LEU A   5     -15.828  -7.113  -4.228  0.00  0.00    -0.273 OA
ENDROOT
BRANCH   2   5
ATOM      5  CA  GLY A   6     -14.316  -6.764  -1.983  0.00  0.00    +0.176 C 
BRANCH   5   6
ATOM      6  C   GLY A   6     -14.905  -5.364  -2.007  0.00  0.00    +0.243 C 
ATOM      7  O   GLY A   6     -15.907  -5.091  -1.344  0.00  0.00    -0.273 OA
ATOM      8  N   GLN A   7     -14.291  -4.472  -2.775  0.00  0.00    -0.297 N 
ATOM      9  H   GLN A   7     -13.432  -4.748  -3.293  0.00  0.00    +0.150 HD
BRANCH   8  10
ATOM     10  CA  GLN A   7     -14.800  -3.113  -2.905  0.00  0.00    +0.149 C 
BRANCH  10  11
ATOM     11  C   GLN A   7     -16.150  -3.125  -3.613  0.00  0.00    +0.241 C 
ATOM     12  O   GLN A   7     -17.078  -2.429  -3.211  0.00  0.00    -0.273 OA
ATOM     13  N   TYR A   8     -16.256  -3.929  -4.665  0.00  0.00    -0.297 N 
ATOM     14  H   TYR A   8     -15.431  -4.487  -4.965  0.00  0.00    +0.150 HD
BRANCH  13  15
ATOM     15  CA  TYR A   8     -17.506  -4.046  -5.409  0.00  0.00    +0.153 C 
BRANCH  15  16
ATOM     16  C   TYR A   8     -18.634  -4.571  -4.522  0.00  0.00    +0.241 C 
ATOM     17  N   ILE A   9     -18.346  -5.624  -3.767  0.00  0.00    -0.297 N 
ATOM     18  H   ILE A   9     -17.383  -6.015  -3.795  0.00  0.00    +0.150 HD
ATOM     19  O   TYR A   8     -19.736  -4.031  -4.518  0.00  0.00    -0.273 OA
BRANCH  17  20
ATOM     20  CA  ILE A   9     -19.338  -6.251  -2.898  0.00  0.00    +0.149 C 
BRANCH  20  21
ATOM     21  C   ILE A   9     -19.813  -5.280  -1.823  0.00  0.00    +0.241 C 
ATOM     22  N   MET A  10     -18.867  -4.558  -1.241  0.00  0.00    -0.298 N 
ATOM     23  H   MET A  10     -17.871  -4.741  -1.478  0.00  0.00    +0.150 HD
ATOM     24  O   ILE A   9     -21.014  -5.162  -1.548  0.00  0.00    -0.273 OA
BRANCH  22  25
ATOM     25  CA  MET A  10     -19.188  -3.514  -0.277  0.00  0.00    +0.138 C 
BRANCH  25  26
ATOM     26  C   MET A  10     -20.031  -2.398  -0.882  0.00  0.00    +0.227 C 
ATOM     27  O   MET A  10     -21.039  -1.987  -0.309  0.00  0.00    -0.286 OA
ENDBRANCH  25  26
BRANCH  25  28
ATOM     28  CB  MET A  10     -17.903  -2.916   0.284  0.00  0.00    +0.039 C 
BRANCH  28  29
ATOM     29  CG  MET A  10     -18.082  -1.516   0.842  0.00  0.00    +0.060 C 
BRANCH  29  30
ATOM     30  SD  MET A  10     -16.573  -0.926   1.598  0.00  0.00    -0.139 S 
ATOM     31  CE  MET A  10     -16.222  -2.270   2.575  0.00  0.00    +0.069 C 
ENDBRANCH  29  30
ENDBRANCH  28  29
ENDBRANCH  25  28
ENDBRANCH  22  25
ENDBRANCH  20  21
BRANCH  20  32
ATOM     32  CB  ILE A   9     -18.737  -7.513  -2.250  0.00  0.00    +0.027 C 
ATOM     33  CG2 ILE A   9     -19.612  -8.002  -1.103  0.00  0.00    +0.002 C 
BRANCH  32  34
ATOM     34  CG1 ILE A   9     -18.540  -8.580  -3.329  0.00  0.00    +0.002 C 
ATOM     35  CD1 ILE A   9     -17.666  -9.729  -2.898  0.00  0.00    +0.000 C 
ENDBRANCH  32  34
ENDBRANCH  20  32
ENDBRANCH  17  20
ENDBRANCH  15  16
BRANCH  15  36
ATOM     36  CB  TYR A   8     -17.308  -4.978  -6.609  0.00  0.00    +0.055 C 
BRANCH  36  37
ATOM     37  CG  TYR A   8     -18.564  -5.270  -7.402  0.00  0.00    -0.020 A 
ATOM     38  CD2 TYR A   8     -19.396  -6.328  -7.054  0.00  0.00    -0.001 A 
ATOM     39  CE2 TYR A   8     -20.532  -6.615  -7.785  0.00  0.00    +0.036 A 
ATOM     40  CZ  TYR A   8     -20.851  -5.840  -8.881  0.00  0.00    +0.134 A 
ATOM     41  CE1 TYR A   8     -20.044  -4.782  -9.250  0.00  0.00    +0.036 A 
ATOM     42  CD1 TYR A   8     -18.906  -4.502  -8.508  0.00  0.00    -0.001 A 
BRANCH  40  43
ATOM     43  OH  TYR A   8     -21.985  -6.119  -9.609  0.00  0.00    -0.506 OA
ATOM     44  HH  TYR A   8     -22.779  -6.046  -9.022  0.00  0.00    +0.292 HD
ENDBRANCH  40  43
ENDBRANCH  36  37
ENDBRANCH  15  36
ENDBRANCH  13  15
ENDBRANCH  10  11
BRANCH  10  45
ATOM     45  CB  GLN A   7     -13.803  -2.252  -3.682  0.00  0.00    +0.039 C 
BRANCH  45  46
ATOM     46  CG  GLN A   7     -12.489  -2.025  -2.950  0.00  0.00    +0.087 C 
BRANCH  46  47
ATOM     47  CD  GLN A   7     -12.666  -1.153  -1.726  0.00  0.00    +0.219 C 
ATOM     48  NE2 GLN A   7     -12.507  -1.742  -0.549  0.00  0.00    -0.329 N 
ATOM     49 HE21 GLN A   7     -12.629  -1.195   0.327  0.00  0.00    +0.145 HD
ATOM     50 HE22 GLN A   7     -12.260  -2.751  -0.502  0.00  0.00    +0.145 HD
ATOM     51  OE1 GLN A   7     -12.958   0.037  -1.841  0.00  0.00    -0.275 OA
ENDBRANCH  46  47
ENDBRANCH  45  46
ENDBRANCH  10  45
ENDBRANCH   8  10
ENDBRANCH   5   6
ENDBRANCH   2   5
BRANCH   1  52
ATOM     52  CA  LEU A   5     -13.958  -7.626  -5.654  0.00  0.00    +0.149 C 
BRANCH  52  54
ATOM     53  C   HIS A   4     -12.684  -5.591  -5.878  0.00  0.00    +0.241 C 
ATOM     54  N   LEU A   5     -12.695  -6.918  -5.827  0.00  0.00    -0.297 N 
ATOM     55  H   LEU A   5     -11.806  -7.451  -5.910  0.00  0.00    +0.150 HD
ATOM     56  O   HIS A   4     -13.719  -4.933  -5.858  0.00  0.00    -0.273 OA
BRANCH  53  57
ATOM     57  CA  HIS A   4     -11.326  -4.898  -5.949  0.00  0.00    +0.155 C 
BRANCH  57  60
ATOM     58  C   TYR A   3     -10.452  -5.632  -3.819  0.00  0.00    +0.241 C 
ATOM     59  O   TYR A   3     -11.423  -5.164  -3.225  0.00  0.00    -0.273 OA
ATOM     60  N   HIS A   4     -10.319  -5.563  -5.138  0.00  0.00    -0.297 N 
ATOM     61  H   HIS A   4      -9.487  -5.988  -5.595  0.00  0.00    +0.150 HD
BRANCH  58  62
ATOM     62  CA  TYR A   3      -9.328  -6.319  -3.052  0.00  0.00    +0.153 C 
BRANCH  62  65
ATOM     63  C   LEU A   2     -10.016  -8.554  -3.624  0.00  0.00    +0.241 C 
ATOM     64  O   LEU A   2     -11.145  -8.338  -3.181  0.00  0.00    -0.273 OA
ATOM     65  N   TYR A   3      -9.059  -7.635  -3.610  0.00  0.00    -0.297 N 
ATOM     66  H   TYR A   3      -8.119  -7.855  -3.997  0.00  0.00    +0.150 HD
BRANCH  63  67
ATOM     67  CA  LEU A   2      -9.668  -9.904  -4.236  0.00  0.00    +0.149 C 
BRANCH  67  69
ATOM     68  C   VAL A   1      -9.233  -9.119  -6.493  0.00  0.00    +0.238 C 
ATOM     69  N   LEU A   2      -8.810  -9.749  -5.404  0.00  0.00    -0.297 N 
ATOM     70  H   LEU A   2      -7.847 -10.140  -5.384  0.00  0.00    +0.150 HD
ATOM     71  O   VAL A   1     -10.359  -8.628  -6.585  0.00  0.00    -0.274 OA
BRANCH  68  72
ATOM     72  CA  VAL A   1      -8.228  -9.022  -7.642  0.00  0.00    +0.145 C 
BRANCH  72  73
ATOM     73  CB  VAL A   1      -8.165 -10.388  -8.352  0.00  0.00    +0.025 C 
ATOM     74  CG2 VAL A   1      -9.563 -10.816  -8.773  0.00  0.00    +0.002 C 
ATOM     75  CG1 VAL A   1      -7.253 -10.309  -9.561  0.00  0.00    +0.002 C 
ENDBRANCH  72  73
BRANCH  72  76
ATOM     76  N   VAL A   1      -6.928  -8.631  -7.113  0.00  0.00    -0.238 NA
ATOM     77  H   VAL A   1      -6.108  -9.260  -7.230  0.00  0.00    +0.142 HD
ENDBRANCH  72  76
ENDBRANCH  68  72
ENDBRANCH  67  69
BRANCH  67  78
ATOM     78  CB  LEU A   2      -8.982 -10.794  -3.201  0.00  0.00    +0.029 C 
BRANCH  78  79
ATOM     79  CG  LEU A   2      -8.965 -12.266  -3.619  0.00  0.00    +0.002 C 
ATOM     80  CD2 LEU A   2      -7.855 -13.010  -2.894  0.00  0.00    +0.000 C 
ATOM     81  CD1 LEU A   2     -10.324 -12.892  -3.334  0.00  0.00    +0.000 C 
ENDBRANCH  78  79
ENDBRANCH  67  78
ENDBRANCH  63  67
ENDBRANCH  62  65
BRANCH  62  82
ATOM     82  CB  TYR A   3      -8.079  -5.437  -3.096  0.00  0.00    +0.055 C 
BRANCH  82  83
ATOM     83  CG  TYR A   3      -8.356  -4.030  -2.617  0.00  0.00    -0.020 A 
ATOM     84  CD2 TYR A   3      -8.506  -3.754  -1.263  0.00  0.00    -0.001 A 
ATOM     85  CE2 TYR A   3      -8.833  -2.484  -0.822  0.00  0.00    +0.036 A 
ATOM     86  CZ  TYR A   3      -9.011  -1.470  -1.737  0.00  0.00    +0.134 A 
ATOM     87  CE1 TYR A   3      -8.859  -1.715  -3.085  0.00  0.00    +0.036 A 
ATOM     88  CD1 TYR A   3      -8.533  -2.990  -3.518  0.00  0.00    -0.001 A 
BRANCH  86  89
ATOM     89  OH  TYR A   3      -9.366  -0.210  -1.301  0.00  0.00    -0.506 OA
ATOM     90  HH  TYR A   3      -8.679   0.443  -1.588  0.00  0.00    +0.292 HD
ENDBRANCH  86  89
ENDBRANCH  82  83
ENDBRANCH  62  82
ENDBRANCH  58  62
ENDBRANCH  57  60
BRANCH  57  91
ATOM     91  CB  HIS A   4     -10.860  -4.808  -7.402  0.00  0.00    +0.076 C 
BRANCH  91  92
ATOM     92  CG  HIS A   4      -9.686  -3.900  -7.602  0.00  0.00    +0.082 A 
ATOM     93  ND1 HIS A   4      -9.721  -2.559  -7.284  0.00  0.00    -0.227 NA
ATOM     94  CE1 HIS A   4      -8.547  -2.015  -7.551  0.00  0.00    +0.199 A 
ATOM     95  NE2 HIS A   4      -7.752  -2.954  -8.031  0.00  0.00    -0.221 NA
ATOM     96  CD2 HIS A   4      -8.441  -4.142  -8.074  0.00  0.00    +0.115 A 
ENDBRANCH  91  92
ENDBRANCH  57  91
ENDBRANCH  53  57
ENDBRANCH  52  54
BRANCH  52  97
ATOM     97  CB  LEU A   5     -13.738  -9.138  -5.747  0.00  0.00    +0.029 C 
BRANCH  97  98
ATOM     98  CG  LEU A   5     -13.591  -9.706  -7.162  0.00  0.00    +0.002 C 
ATOM     99  CD2 LEU A   5     -13.003 -11.102  -7.083  0.00  0.00    +0.000 C 
ATOM    100  CD1 LEU A   5     -14.943  -9.729  -7.862  0.00  0.00    +0.000 C 
ENDBRANCH  97  98
ENDBRANCH  52  97
ENDBRANCH   1  52
TORSDOF 41
REMARK  Name = ../refined-set-2016/4j74/4j74_pocket.pdb
REMARK  137 active torsions:
REMARK  status: ('A' for Active; 'I' for Inactive)
REMARK    1  A    between atoms: _1  and  _3
REMARK    2  A    between atoms: _3  and  _4
REMARK    3  A    between atoms: _3  and  _6
REMARK    4  A    between atoms: _6  and  _7
REMARK    5  A    between atoms: _7  and  _8
REMARK    6  A    between atoms: _10  and  _12
REMARK    7  A    between atoms: _12  and  _13
REMARK    8  A    between atoms: _12  and  _15
REMARK    9  A    between atoms: _15  and  _16
REMARK   10  A    between atoms: _16  and  _17
REMARK   11  A    between atoms: _17  and  _18
REMARK   12  A    between atoms: _18  and  _19
REMARK   13  A    between atoms: _23  and  _25
REMARK   14  A    between atoms: _25  and  _26
REMARK   15  A    between atoms: _25  and  _28
REMARK   16  A    between atoms: _31  and  _33
REMARK   17  A    between atoms: _33  and  _34
REMARK   18  A    between atoms: _33  and  _36
REMARK   19  A    between atoms: _36  and  _37
REMARK   20  A    between atoms: _40  and  _42
REMARK   21  A    between atoms: _42  and  _43
REMARK   22  A    between atoms: _42  and  _45
REMARK   23  A    between atoms: _45  and  _46
REMARK   24  A    between atoms: _51  and  _52
REMARK   25  A    between atoms: _54  and  _56
REMARK   26  A    between atoms: _56  and  _57
REMARK   27  A    between atoms: _56  and  _59
REMARK   28  A    between atoms: _59  and  _60
REMARK   29  A    between atoms: _65  and  _67
REMARK   30  A    between atoms: _67  and  _68
REMARK   31  A    between atoms: _67  and  _70
REMARK   32  A    between atoms: _70  and  _71
REMARK   33  A    between atoms: _74  and  _76
REMARK   34  A    between atoms: _76  and  _77
REMARK   35  A    between atoms: _79  and  _81
REMARK   36  A    between atoms: _81  and  _82
REMARK   37  A    between atoms: _81  and  _84
REMARK   38  A    between atoms: _84  and  _85
REMARK   39  A    between atoms: _85  and  _86
REMARK   40  A    between atoms: _91  and  _93
REMARK   41  A    between atoms: _93  and  _94
REMARK   42  A    between atoms: _93  and  _96
REMARK   43  A    between atoms: _96  and  _97
REMARK   44  A    between atoms: _102  and  _103
REMARK   45  A    between atoms: _105  and  _107
REMARK   46  A    between atoms: _107  and  _108
REMARK   47  A    between atoms: _107  and  _110
REMARK   48  A    between atoms: _110  and  _111
REMARK   49  A    between atoms: _114  and  _116
REMARK   50  A    between atoms: _116  and  _117
REMARK   51  A    between atoms: _116  and  _119
REMARK   52  A    between atoms: _119  and  _120
REMARK   53  A    between atoms: _120  and  _121
REMARK   54  A    between atoms: _123  and  _125
REMARK   55  A    between atoms: _125  and  _126
REMARK   56  A    between atoms: _125  and  _128
REMARK   57  A    between atoms: _128  and  _129
REMARK   58  A    between atoms: _134  and  _135
REMARK   59  A    between atoms: _137  and  _139
REMARK   60  A    between atoms: _139  and  _140
REMARK   61  A    between atoms: _139  and  _142
REMARK   62  A    between atoms: _142  and  _143
REMARK   63  A    between atoms: _143  and  _144
REMARK   64  A    between atoms: _149  and  _151
REMARK   65  A    between atoms: _151  and  _152
REMARK   66  A    between atoms: _151  and  _154
REMARK   67  A    between atoms: _154  and  _155
REMARK   68  A    between atoms: _160  and  _162
REMARK   69  A    between atoms: _162  and  _163
REMARK   70  A    between atoms: _162  and  _165
REMARK   71  A    between atoms: _168  and  _170
REMARK   72  A    between atoms: _170  and  _171
REMARK   73  A    between atoms: _170  and  _173
REMARK   74  A    between atoms: _173  and  _174
REMARK   75  A    between atoms: _177  and  _179
REMARK   76  A    between atoms: _179  and  _180
REMARK   77  A    between atoms: _179  and  _182
REMARK   78  A    between atoms: _182  and  _183
REMARK   79  A    between atoms: _189  and  _191
REMARK   80  A    between atoms: _191  and  _192
REMARK   81  A    between atoms: _191  and  _194
REMARK   82  A    between atoms: _194  and  _195
REMARK   83  A    between atoms: _201  and  _203
REMARK   84  A    between atoms: _203  and  _204
REMARK   85  A    between atoms: _203  and  _206
REMARK   86  A    between atoms: _206  and  _207
REMARK   87  A    between atoms: _209  and  _211
REMARK   88  A    between atoms: _211  and  _212
REMARK   89  A    between atoms: _211  and  _214
REMARK   90  A    between atoms: _217  and  _219
REMARK   91  A    between atoms: _219  and  _220
REMARK   92  A    between atoms: _219  and  _222
REMARK   93  A    between atoms: _222  and  _223
REMARK   94  A    between atoms: _223  and  _224
REMARK   95  A    between atoms: _224  and  _225
REMARK   96  A    between atoms: _225  and  _226
REMARK   97  A    between atoms: _230  and  _232
REMARK   98  A    between atoms: _232  and  _233
REMARK   99  A    between atoms: _232  and  _235
REMARK  100  A    between atoms: _235  and  _236
REMARK  101  A    between atoms: _236  and  _237
REMARK  102  A    between atoms: _240  and  _242
REMARK  103  A    between atoms: _242  and  _243
REMARK  104  A    between atoms: _242  and  _245
REMARK  105  A    between atoms: _245  and  _246
REMARK  106  A    between atoms: _251  and  _253
REMARK  107  A    between atoms: _253  and  _254
REMARK  108  A    between atoms: _253  and  _256
REMARK  109  A    between atoms: _256  and  _257
REMARK  110  A    between atoms: _257  and  _258
REMARK  111  A    between atoms: _258  and  _259
REMARK  112  A    between atoms: _268  and  _270
REMARK  113  A    between atoms: _270  and  _271
REMARK  114  A    between atoms: _270  and  _273
REMARK  115  A    between atoms: _273  and  _274
REMARK  116  A    between atoms: _274  and  _275
REMARK  117  A    between atoms: _275  and  _276
REMARK  118  A    between atoms: _285  and  _287
REMARK  119  A    between atoms: _287  and  _288
REMARK  120  A    between atoms: _287  and  _290
REMARK  121  A    between atoms: _290  and  _291
REMARK  122  A    between atoms: _294  and  _296
REMARK  123  A    between atoms: _296  and  _297
REMARK  124  A    between atoms: _296  and  _299
REMARK  125  A    between atoms: _299  and  _300
REMARK  126  A    between atoms: _305  and  _306
REMARK  127  A    between atoms: _308  and  _310
REMARK  128  A    between atoms: _310  and  _311
REMARK  129  A    between atoms: _314  and  _316
REMARK  130  A    between atoms: _316  and  _317
REMARK  131  A    between atoms: _316  and  _319
REMARK  132  A    between atoms: _319  and  _320
REMARK  133  A    between atoms: _320  and  _321
REMARK  134  A    between atoms: _323  and  _325
REMARK  135  A    between atoms: _325  and  _326
REMARK  136  A    between atoms: _325  and  _328
REMARK  137  A    between atoms: _328  and  _329
REMARK                            x       y       z     vdW  Elec       q    Type
REMARK                         _______ _______ _______ _____ _____    ______ ____
ROOT
ATOM      1  CG  TYR A   1     -21.099  -8.007   3.074  0.00  0.00    -0.020 A 
ATOM      2  CD2 TYR A   1     -20.435  -9.225   3.137  0.00  0.00    -0.001 A 
ATOM      3  CE2 TYR A   1     -19.107  -9.333   2.773  0.00  0.00    +0.036 A 
ATOM      4  CZ  TYR A   1     -18.428  -8.214   2.339  0.00  0.00    +0.134 A 
ATOM      5  CE1 TYR A   1     -19.064  -6.992   2.267  0.00  0.00    +0.036 A 
ATOM      6  CD1 TYR A   1     -20.393  -6.894   2.634  0.00  0.00    -0.001 A 
ENDROOT
BRANCH   4   7
ATOM      7  OH  TYR A   1     -17.104  -8.333   1.977  0.00  0.00    -0.506 OA
ATOM      8  HH  TYR A   1     -16.761  -7.450   1.691  0.00  0.00    +0.292 HD
ENDBRANCH   4   7
BRANCH   1   9
ATOM      9  CB  TYR A   1     -22.551  -7.894   3.463  0.00  0.00    +0.051 C 
BRANCH   9  10
ATOM     10  CA  TYR A   1     -23.509  -8.549   2.469  0.00  0.00    +0.137 C 
BRANCH  10  11
ATOM     11  N   TYR A   1     -23.595  -7.767   1.240  0.00  0.00    -0.239 NA
ATOM     12  H   TYR A   1     -23.169  -6.819   1.194  0.00  0.00    +0.142 HD
ENDBRANCH  10  11
BRANCH  10  13
ATOM     13  C   TYR A   1     -24.870  -8.716   3.133  0.00  0.00    +0.224 C 
ATOM     14  O   TYR A   1     -25.679  -7.785   3.169  0.00  0.00    -0.287 OA
ENDBRANCH  10  13
ENDBRANCH   9  10
ENDBRANCH   1   9
TORSDOF 5
REMARK  Name = ../refined-set-2016/4j74/4j74_pocket.pdb
REMARK  137 active torsions:
REMARK  status: ('A' for Active; 'I' for Inactive)
REMARK    1  A    between atoms: _1  and  _3
REMARK    2  A    between atoms: _3  and  _4
REMARK    3  A    between atoms: _3  and  _6
REMARK    4  A    between atoms: _6  and  _7
REMARK    5  A    between atoms: _7  and  _8
REMARK    6  A    between atoms: _10  and  _12
REMARK    7  A    between atoms: _12  and  _13
REMARK    8  A    between atoms: _12  and  _15
REMARK    9  A    between atoms: _15  and  _16
REMARK   10  A    between atoms: _16  and  _17
REMARK   11  A    between atoms: _17  and  _18
REMARK   12  A    between atoms: _18  and  _19
REMARK   13  A    between atoms: _23  and  _25
REMARK   14  A    between atoms: _25  and  _26
REMARK   15  A    between atoms: _25  and  _28
REMARK   16  A    between atoms: _31  and  _33
REMARK   17  A    between atoms: _33  and  _34
REMARK   18  A    between atoms: _33  and  _36
REMARK   19  A    between atoms: _36  and  _37
REMARK   20  A    between atoms: _40  and  _42
REMARK   21  A    between atoms: _42  and  _43
REMARK   22  A    between atoms: _42  and  _45
REMARK   23  A    between atoms: _45  and  _46
REMARK   24  A    between atoms: _51  and  _52
REMARK   25  A    between atoms: _54  and  _56
REMARK   26  A    between atoms: _56  and  _57
REMARK   27  A    between atoms: _56  and  _59
REMARK   28  A    between atoms: _59  and  _60
REMARK   29  A    between atoms: _65  and  _67
REMARK   30  A    between atoms: _67  and  _68
REMARK   31  A    between atoms: _67  and  _70
REMARK   32  A    between atoms: _70  and  _71
REMARK   33  A    between atoms: _74  and  _76
REMARK   34  A    between atoms: _76  and  _77
REMARK   35  A    between atoms: _79  and  _81
REMARK   36  A    between atoms: _81  and  _82
REMARK   37  A    between atoms: _81  and  _84
REMARK   38  A    between atoms: _84  and  _85
REMARK   39  A    between atoms: _85  and  _86
REMARK   40  A    between atoms: _91  and  _93
REMARK   41  A    between atoms: _93  and  _94
REMARK   42  A    between atoms: _93  and  _96
REMARK   43  A    between atoms: _96  and  _97
REMARK   44  A    between atoms: _102  and  _103
REMARK   45  A    between atoms: _105  and  _107
REMARK   46  A    between atoms: _107  and  _108
REMARK   47  A    between atoms: _107  and  _110
REMARK   48  A    between atoms: _110  and  _111
REMARK   49  A    between atoms: _114  and  _116
REMARK   50  A    between atoms: _116  and  _117
REMARK   51  A    between atoms: _116  and  _119
REMARK   52  A    between atoms: _119  and  _120
REMARK   53  A    between atoms: _120  and  _121
REMARK   54  A    between atoms: _123  and  _125
REMARK   55  A    between atoms: _125  and  _126
REMARK   56  A    between atoms: _125  and  _128
REMARK   57  A    between atoms: _128  and  _129
REMARK   58  A    between atoms: _134  and  _135
REMARK   59  A    between atoms: _137  and  _139
REMARK   60  A    between atoms: _139  and  _140
REMARK   61  A    between atoms: _139  and  _142
REMARK   62  A    between atoms: _142  and  _143
REMARK   63  A    between atoms: _143  and  _144
REMARK   64  A    between atoms: _149  and  _151
REMARK   65  A    between atoms: _151  and  _152
REMARK   66  A    between atoms: _151  and  _154
REMARK   67  A    between atoms: _154  and  _155
REMARK   68  A    between atoms: _160  and  _162
REMARK   69  A    between atoms: _162  and  _163
REMARK   70  A    between atoms: _162  and  _165
REMARK   71  A    between atoms: _168  and  _170
REMARK   72  A    between atoms: _170  and  _171
REMARK   73  A    between atoms: _170  and  _173
REMARK   74  A    between atoms: _173  and  _174
REMARK   75  A    between atoms: _177  and  _179
REMARK   76  A    between atoms: _179  and  _180
REMARK   77  A    between atoms: _179  and  _182
REMARK   78  A    between atoms: _182  and  _183
REMARK   79  A    between atoms: _189  and  _191
REMARK   80  A    between atoms: _191  and  _192
REMARK   81  A    between atoms: _191  and  _194
REMARK   82  A    between atoms: _194  and  _195
REMARK   83  A    between atoms: _201  and  _203
REMARK   84  A    between atoms: _203  and  _204
REMARK   85  A    between atoms: _203  and  _206
REMARK   86  A    between atoms: _206  and  _207
REMARK   87  A    between atoms: _209  and  _211
REMARK   88  A    between atoms: _211  and  _212
REMARK   89  A    between atoms: _211  and  _214
REMARK   90  A    between atoms: _217  and  _219
REMARK   91  A    between atoms: _219  and  _220
REMARK   92  A    between atoms: _219  and  _222
REMARK   93  A    between atoms: _222  and  _223
REMARK   94  A    between atoms: _223  and  _224
REMARK   95  A    between atoms: _224  and  _225
REMARK   96  A    between atoms: _225  and  _226
REMARK   97  A    between atoms: _230  and  _232
REMARK   98  A    between atoms: _232  and  _233
REMARK   99  A    between atoms: _232  and  _235
REMARK  100  A    between atoms: _235  and  _236
REMARK  101  A    between atoms: _236  and  _237
REMARK  102  A    between atoms: _240  and  _242
REMARK  103  A    between atoms: _242  and  _243
REMARK  104  A    between atoms: _242  and  _245
REMARK  105  A    between atoms: _245  and  _246
REMARK  106  A    between atoms: _251  and  _253
REMARK  107  A    between atoms: _253  and  _254
REMARK  108  A    between atoms: _253  and  _256
REMARK  109  A    between atoms: _256  and  _257
REMARK  110  A    between atoms: _257  and  _258
REMARK  111  A    between atoms: _258  and  _259
REMARK  112  A    between atoms: _268  and  _270
REMARK  113  A    between atoms: _270  and  _271
REMARK  114  A    between atoms: _270  and  _273
REMARK  115  A    between atoms: _273  and  _274
REMARK  116  A    between atoms: _274  and  _275
REMARK  117  A    between atoms: _275  and  _276
REMARK  118  A    between atoms: _285  and  _287
REMARK  119  A    between atoms: _287  and  _288
REMARK  120  A    between atoms: _287  and  _290
REMARK  121  A    between atoms: _290  and  _291
REMARK  122  A    between atoms: _294  and  _296
REMARK  123  A    between atoms: _296  and  _297
REMARK  124  A    between atoms: _296  and  _299
REMARK  125  A    between atoms: _299  and  _300
REMARK  126  A    between atoms: _305  and  _306
REMARK  127  A    between atoms: _308  and  _310
REMARK  128  A    between atoms: _310  and  _311
REMARK  129  A    between atoms: _314  and  _316
REMARK  130  A    between atoms: _316  and  _317
REMARK  131  A    between atoms: _316  and  _319
REMARK  132  A    between atoms: _319  and  _320
REMARK  133  A    between atoms: _320  and  _321
REMARK  134  A    between atoms: _323  and  _325
REMARK  135  A    between atoms: _325  and  _326
REMARK  136  A    between atoms: _325  and  _328
REMARK  137  A    between atoms: _328  and  _329
REMARK                            x       y       z     vdW  Elec       q    Type
REMARK                         _______ _______ _______ _____ _____    ______ ____
ROOT
ATOM      1  C   GLN A   1     -21.060 -11.391   6.816  0.00  0.00    +0.238 C 
ATOM      2  N   HIS A   2     -20.916 -12.696   7.033  0.00  0.00    -0.298 N 
ATOM      3  H   HIS A   2     -21.462 -13.154   7.790  0.00  0.00    +0.150 HD
ATOM      4  O   GLN A   1     -20.352 -10.766   6.026  0.00  0.00    -0.274 OA
ENDROOT
BRANCH   1   5
ATOM      5  CA  GLN A   1     -22.168 -10.673   7.580  0.00  0.00    +0.145 C 
BRANCH   5   6
ATOM      6  N   GLN A   1     -22.999 -11.537   8.405  0.00  0.00    -0.238 NA
ATOM      7  H   GLN A   1     -22.897 -11.515   9.440  0.00  0.00    +0.142 HD
ENDBRANCH   5   6
BRANCH   5   8
ATOM      8  CB  GLN A   1     -21.575  -9.543   8.425  0.00  0.00    +0.036 C 
BRANCH   8   9
ATOM      9  CG  GLN A   1     -22.608  -8.514   8.864  0.00  0.00    +0.087 C 
BRANCH   9  10
ATOM     10  CD  GLN A   1     -21.986  -7.199   9.293  0.00  0.00    +0.219 C 
ATOM     11  OE1 GLN A   1     -22.533  -6.489  10.136  0.00  0.00    -0.275 OA
ATOM     12  NE2 GLN A   1     -20.840  -6.866   8.710  0.00  0.00    -0.329 N 
ATOM     13 HE21 GLN A   1     -20.369  -5.974   8.961  0.00  0.00    +0.145 HD
ATOM     14 HE22 GLN A   1     -20.414  -7.498   8.002  0.00  0.00    +0.145 HD
ENDBRANCH   9  10
ENDBRANCH   8   9
ENDBRANCH   5   8
ENDBRANCH   1   5
BRANCH   2  15
ATOM     15  CA  HIS A   2     -20.000 -13.493   6.221  0.00  0.00    +0.143 C 
BRANCH  15  16
ATOM     16  C   HIS A   2     -20.616 -13.885   4.884  0.00  0.00    +0.227 C 
ATOM     17  O   HIS A   2     -19.918 -14.364   3.988  0.00  0.00    -0.286 OA
ENDBRANCH  15  16
BRANCH  15  18
ATOM     18  CB  HIS A   2     -19.549 -14.759   6.971  0.00  0.00    +0.075 C 
BRANCH  18  19
ATOM     19  CG  HIS A   2     -20.672 -15.631   7.445  0.00  0.00    +0.082 A 
ATOM     20  CD2 HIS A   2     -21.627 -15.420   8.381  0.00  0.00    +0.115 A 
ATOM     21  NE2 HIS A   2     -22.384 -16.564   8.454  0.00  0.00    -0.221 NA
ATOM     22  CE1 HIS A   2     -21.913 -17.447   7.593  0.00  0.00    +0.199 A 
ATOM     23  ND1 HIS A   2     -20.880 -16.909   6.969  0.00  0.00    -0.227 NA
ENDBRANCH  18  19
ENDBRANCH  15  18
ENDBRANCH   2  15
TORSDOF 9
REMARK  Name = ../refined-set-2016/4j74/4j74_pocket.pdb
REMARK  137 active torsions:
REMARK  status: ('A' for Active; 'I' for Inactive)
REMARK    1  A    between atoms: _1  and  _3
REMARK    2  A    between atoms: _3  and  _4
REMARK    3  A    between atoms: _3  and  _6
REMARK    4  A    between atoms: _6  and  _7
REMARK    5  A    between atoms: _7  and  _8
REMARK    6  A    between atoms: _10  and  _12
REMARK    7  A    between atoms: _12  and  _13
REMARK    8  A    between atoms: _12  and  _15
REMARK    9  A    between atoms: _15  and  _16
REMARK   10  A    between atoms: _16  and  _17
REMARK   11  A    between atoms: _17  and  _18
REMARK   12  A    between atoms: _18  and  _19
REMARK   13  A    between atoms: _23  and  _25
REMARK   14  A    between atoms: _25  and  _26
REMARK   15  A    between atoms: _25  and  _28
REMARK   16  A    between atoms: _31  and  _33
REMARK   17  A    between atoms: _33  and  _34
REMARK   18  A    between atoms: _33  and  _36
REMARK   19  A    between atoms: _36  and  _37
REMARK   20  A    between atoms: _40  and  _42
REMARK   21  A    between atoms: _42  and  _43
REMARK   22  A    between atoms: _42  and  _45
REMARK   23  A    between atoms: _45  and  _46
REMARK   24  A    between atoms: _51  and  _52
REMARK   25  A    between atoms: _54  and  _56
REMARK   26  A    between atoms: _56  and  _57
REMARK   27  A    between atoms: _56  and  _59
REMARK   28  A    between atoms: _59  and  _60
REMARK   29  A    between atoms: _65  and  _67
REMARK   30  A    between atoms: _67  and  _68
REMARK   31  A    between atoms: _67  and  _70
REMARK   32  A    between atoms: _70  and  _71
REMARK   33  A    between atoms: _74  and  _76
REMARK   34  A    between atoms: _76  and  _77
REMARK   35  A    between atoms: _79  and  _81
REMARK   36  A    between atoms: _81  and  _82
REMARK   37  A    between atoms: _81  and  _84
REMARK   38  A    between atoms: _84  and  _85
REMARK   39  A    between atoms: _85  and  _86
REMARK   40  A    between atoms: _91  and  _93
REMARK   41  A    between atoms: _93  and  _94
REMARK   42  A    between atoms: _93  and  _96
REMARK   43  A    between atoms: _96  and  _97
REMARK   44  A    between atoms: _102  and  _103
REMARK   45  A    between atoms: _105  and  _107
REMARK   46  A    between atoms: _107  and  _108
REMARK   47  A    between atoms: _107  and  _110
REMARK   48  A    between atoms: _110  and  _111
REMARK   49  A    between atoms: _114  and  _116
REMARK   50  A    between atoms: _116  and  _117
REMARK   51  A    between atoms: _116  and  _119
REMARK   52  A    between atoms: _119  and  _120
REMARK   53  A    between atoms: _120  and  _121
REMARK   54  A    between atoms: _123  and  _125
REMARK   55  A    between atoms: _125  and  _126
REMARK   56  A    between atoms: _125  and  _128
REMARK   57  A    between atoms: _128  and  _129
REMARK   58  A    between atoms: _134  and  _135
REMARK   59  A    between atoms: _137  and  _139
REMARK   60  A    between atoms: _139  and  _140
REMARK   61  A    between atoms: _139  and  _142
REMARK   62  A    between atoms: _142  and  _143
REMARK   63  A    between atoms: _143  and  _144
REMARK   64  A    between atoms: _149  and  _151
REMARK   65  A    between atoms: _151  and  _152
REMARK   66  A    between atoms: _151  and  _154
REMARK   67  A    between atoms: _154  and  _155
REMARK   68  A    between atoms: _160  and  _162
REMARK   69  A    between atoms: _162  and  _163
REMARK   70  A    between atoms: _162  and  _165
REMARK   71  A    between atoms: _168  and  _170
REMARK   72  A    between atoms: _170  and  _171
REMARK   73  A    between atoms: _170  and  _173
REMARK   74  A    between atoms: _173  and  _174
REMARK   75  A    between atoms: _177  and  _179
REMARK   76  A    between atoms: _179  and  _180
REMARK   77  A    between atoms: _179  and  _182
REMARK   78  A    between atoms: _182  and  _183
REMARK   79  A    between atoms: _189  and  _191
REMARK   80  A    between atoms: _191  and  _192
REMARK   81  A    between atoms: _191  and  _194
REMARK   82  A    between atoms: _194  and  _195
REMARK   83  A    between atoms: _201  and  _203
REMARK   84  A    between atoms: _203  and  _204
REMARK   85  A    between atoms: _203  and  _206
REMARK   86  A    between atoms: _206  and  _207
REMARK   87  A    between atoms: _209  and  _211
REMARK   88  A    between atoms: _211  and  _212
REMARK   89  A    between atoms: _211  and  _214
REMARK   90  A    between atoms: _217  and  _219
REMARK   91  A    between atoms: _219  and  _220
REMARK   92  A    between atoms: _219  and  _222
REMARK   93  A    between atoms: _222  and  _223
REMARK   94  A    between atoms: _223  and  _224
REMARK   95  A    between atoms: _224  and  _225
REMARK   96  A    between atoms: _225  and  _226
REMARK   97  A    between atoms: _230  and  _232
REMARK   98  A    between atoms: _232  and  _233
REMARK   99  A    between atoms: _232  and  _235
REMARK  100  A    between atoms: _235  and  _236
REMARK  101  A    between atoms: _236  and  _237
REMARK  102  A    between atoms: _240  and  _242
REMARK  103  A    between atoms: _242  and  _243
REMARK  104  A    between atoms: _242  and  _245
REMARK  105  A    between atoms: _245  and  _246
REMARK  106  A    between atoms: _251  and  _253
REMARK  107  A    between atoms: _253  and  _254
REMARK  108  A    between atoms: _253  and  _256
REMARK  109  A    between atoms: _256  and  _257
REMARK  110  A    between atoms: _257  and  _258
REMARK  111  A    between atoms: _258  and  _259
REMARK  112  A    between atoms: _268  and  _270
REMARK  113  A    between atoms: _270  and  _271
REMARK  114  A    between atoms: _270  and  _273
REMARK  115  A    between atoms: _273  and  _274
REMARK  116  A    between atoms: _274  and  _275
REMARK  117  A    between atoms: _275  and  _276
REMARK  118  A    between atoms: _285  and  _287
REMARK  119  A    between atoms: _287  and  _288
REMARK  120  A    between atoms: _287  and  _290
REMARK  121  A    between atoms: _290  and  _291
REMARK  122  A    between atoms: _294  and  _296
REMARK  123  A    between atoms: _296  and  _297
REMARK  124  A    between atoms: _296  and  _299
REMARK  125  A    between atoms: _299  and  _300
REMARK  126  A    between atoms: _305  and  _306
REMARK  127  A    between atoms: _308  and  _310
REMARK  128  A    between atoms: _310  and  _311
REMARK  129  A    between atoms: _314  and  _316
REMARK  130  A    between atoms: _316  and  _317
REMARK  131  A    between atoms: _316  and  _319
REMARK  132  A    between atoms: _319  and  _320
REMARK  133  A    between atoms: _320  and  _321
REMARK  134  A    between atoms: _323  and  _325
REMARK  135  A    between atoms: _325  and  _326
REMARK  136  A    between atoms: _325  and  _328
REMARK  137  A    between atoms: _328  and  _329
REMARK                            x       y       z     vdW  Elec       q    Type
REMARK                         _______ _______ _______ _____ _____    ______ ____
ROOT
ATOM      1  CA  VAL A   1     -22.610 -12.368   0.185  0.00  0.00    +0.133 C 
ENDROOT
BRANCH   1   2
ATOM      2  CB  VAL A   1     -21.332 -12.325  -0.674  0.00  0.00    +0.023 C 
ATOM      3  CG2 VAL A   1     -20.149 -11.920   0.181  0.00  0.00    +0.002 C 
ATOM      4  CG1 VAL A   1     -21.513 -11.364  -1.836  0.00  0.00    +0.002 C 
ENDBRANCH   1   2
BRANCH   1   5
ATOM      5  N   VAL A   1     -22.452 -13.293   1.301  0.00  0.00    -0.239 NA
ATOM      6  H   VAL A   1     -22.061 -14.238   1.113  0.00  0.00    +0.142 HD
ENDBRANCH   1   5
BRANCH   1   7
ATOM      7  C   VAL A   1     -23.764 -12.830  -0.696  0.00  0.00    +0.224 C 
ATOM      8  O   VAL A   1     -23.743 -13.947  -1.216  0.00  0.00    -0.287 OA
ENDBRANCH   1   7
TORSDOF 3
REMARK  Name = ../refined-set-2016/4j74/4j74_pocket.pdb
REMARK  137 active torsions:
REMARK  status: ('A' for Active; 'I' for Inactive)
REMARK    1  A    between atoms: _1  and  _3
REMARK    2  A    between atoms: _3  and  _4
REMARK    3  A    between atoms: _3  and  _6
REMARK    4  A    between atoms: _6  and  _7
REMARK    5  A    between atoms: _7  and  _8
REMARK    6  A    between atoms: _10  and  _12
REMARK    7  A    between atoms: _12  and  _13
REMARK    8  A    between atoms: _12  and  _15
REMARK    9  A    between atoms: _15  and  _16
REMARK   10  A    between atoms: _16  and  _17
REMARK   11  A    between atoms: _17  and  _18
REMARK   12  A    between atoms: _18  and  _19
REMARK   13  A    between atoms: _23  and  _25
REMARK   14  A    between atoms: _25  and  _26
REMARK   15  A    between atoms: _25  and  _28
REMARK   16  A    between atoms: _31  and  _33
REMARK   17  A    between atoms: _33  and  _34
REMARK   18  A    between atoms: _33  and  _36
REMARK   19  A    between atoms: _36  and  _37
REMARK   20  A    between atoms: _40  and  _42
REMARK   21  A    between atoms: _42  and  _43
REMARK   22  A    between atoms: _42  and  _45
REMARK   23  A    between atoms: _45  and  _46
REMARK   24  A    between atoms: _51  and  _52
REMARK   25  A    between atoms: _54  and  _56
REMARK   26  A    between atoms: _56  and  _57
REMARK   27  A    between atoms: _56  and  _59
REMARK   28  A    between atoms: _59  and  _60
REMARK   29  A    between atoms: _65  and  _67
REMARK   30  A    between atoms: _67  and  _68
REMARK   31  A    between atoms: _67  and  _70
REMARK   32  A    between atoms: _70  and  _71
REMARK   33  A    between atoms: _74  and  _76
REMARK   34  A    between atoms: _76  and  _77
REMARK   35  A    between atoms: _79  and  _81
REMARK   36  A    between atoms: _81  and  _82
REMARK   37  A    between atoms: _81  and  _84
REMARK   38  A    between atoms: _84  and  _85
REMARK   39  A    between atoms: _85  and  _86
REMARK   40  A    between atoms: _91  and  _93
REMARK   41  A    between atoms: _93  and  _94
REMARK   42  A    between atoms: _93  and  _96
REMARK   43  A    between atoms: _96  and  _97
REMARK   44  A    between atoms: _102  and  _103
REMARK   45  A    between atoms: _105  and  _107
REMARK   46  A    between atoms: _107  and  _108
REMARK   47  A    between atoms: _107  and  _110
REMARK   48  A    between atoms: _110  and  _111
REMARK   49  A    between atoms: _114  and  _116
REMARK   50  A    between atoms: _116  and  _117
REMARK   51  A    between atoms: _116  and  _119
REMARK   52  A    between atoms: _119  and  _120
REMARK   53  A    between atoms: _120  and  _121
REMARK   54  A    between atoms: _123  and  _125
REMARK   55  A    between atoms: _125  and  _126
REMARK   56  A    between atoms: _125  and  _128
REMARK   57  A    between atoms: _128  and  _129
REMARK   58  A    between atoms: _134  and  _135
REMARK   59  A    between atoms: _137  and  _139
REMARK   60  A    between atoms: _139  and  _140
REMARK   61  A    between atoms: _139  and  _142
REMARK   62  A    between atoms: _142  and  _143
REMARK   63  A    between atoms: _143  and  _144
REMARK   64  A    between atoms: _149  and  _151
REMARK   65  A    between atoms: _151  and  _152
REMARK   66  A    between atoms: _151  and  _154
REMARK   67  A    between atoms: _154  and  _155
REMARK   68  A    between atoms: _160  and  _162
REMARK   69  A    between atoms: _162  and  _163
REMARK   70  A    between atoms: _162  and  _165
REMARK   71  A    between atoms: _168  and  _170
REMARK   72  A    between atoms: _170  and  _171
REMARK   73  A    between atoms: _170  and  _173
REMARK   74  A    between atoms: _173  and  _174
REMARK   75  A    between atoms: _177  and  _179
REMARK   76  A    between atoms: _179  and  _180
REMARK   77  A    between atoms: _179  and  _182
REMARK   78  A    between atoms: _182  and  _183
REMARK   79  A    between atoms: _189  and  _191
REMARK   80  A    between atoms: _191  and  _192
REMARK   81  A    between atoms: _191  and  _194
REMARK   82  A    between atoms: _194  and  _195
REMARK   83  A    between atoms: _201  and  _203
REMARK   84  A    between atoms: _203  and  _204
REMARK   85  A    between atoms: _203  and  _206
REMARK   86  A    between atoms: _206  and  _207
REMARK   87  A    between atoms: _209  and  _211
REMARK   88  A    between atoms: _211  and  _212
REMARK   89  A    between atoms: _211  and  _214
REMARK   90  A    between atoms: _217  and  _219
REMARK   91  A    between atoms: _219  and  _220
REMARK   92  A    between atoms: _219  and  _222
REMARK   93  A    between atoms: _222  and  _223
REMARK   94  A    between atoms: _223  and  _224
REMARK   95  A    between atoms: _224  and  _225
REMARK   96  A    between atoms: _225  and  _226
REMARK   97  A    between atoms: _230  and  _232
REMARK   98  A    between atoms: _232  and  _233
REMARK   99  A    between atoms: _232  and  _235
REMARK  100  A    between atoms: _235  and  _236
REMARK  101  A    between atoms: _236  and  _237
REMARK  102  A    between atoms: _240  and  _242
REMARK  103  A    between atoms: _242  and  _243
REMARK  104  A    between atoms: _242  and  _245
REMARK  105  A    between atoms: _245  and  _246
REMARK  106  A    between atoms: _251  and  _253
REMARK  107  A    between atoms: _253  and  _254
REMARK  108  A    between atoms: _253  and  _256
REMARK  109  A    between atoms: _256  and  _257
REMARK  110  A    between atoms: _257  and  _258
REMARK  111  A    between atoms: _258  and  _259
REMARK  112  A    between atoms: _268  and  _270
REMARK  113  A    between atoms: _270  and  _271
REMARK  114  A    between atoms: _270  and  _273
REMARK  115  A    between atoms: _273  and  _274
REMARK  116  A    between atoms: _274  and  _275
REMARK  117  A    between atoms: _275  and  _276
REMARK  118  A    between atoms: _285  and  _287
REMARK  119  A    between atoms: _287  and  _288
REMARK  120  A    between atoms: _287  and  _290
REMARK  121  A    between atoms: _290  and  _291
REMARK  122  A    between atoms: _294  and  _296
REMARK  123  A    between atoms: _296  and  _297
REMARK  124  A    between atoms: _296  and  _299
REMARK  125  A    between atoms: _299  and  _300
REMARK  126  A    between atoms: _305  and  _306
REMARK  127  A    between atoms: _308  and  _310
REMARK  128  A    between atoms: _310  and  _311
REMARK  129  A    between atoms: _314  and  _316
REMARK  130  A    between atoms: _316  and  _317
REMARK  131  A    between atoms: _316  and  _319
REMARK  132  A    between atoms: _319  and  _320
REMARK  133  A    between atoms: _320  and  _321
REMARK  134  A    between atoms: _323  and  _325
REMARK  135  A    between atoms: _325  and  _326
REMARK  136  A    between atoms: _325  and  _328
REMARK  137  A    between atoms: _328  and  _329
REMARK                            x       y       z     vdW  Elec       q    Type
REMARK                         _______ _______ _______ _____ _____    ______ ____
ROOT
ATOM      1  CA  LEU A   1     -21.865 -11.143  -9.653  0.00  0.00    +0.133 C 
ENDROOT
BRANCH   1   2
ATOM      2  N   LEU A   1     -22.915 -10.320 -10.247  0.00  0.00    -0.239 NA
ATOM      3  H   LEU A   1     -23.301  -9.515  -9.715  0.00  0.00    +0.142 HD
ENDBRANCH   1   2
BRANCH   1   4
ATOM      4  C   LEU A   1     -22.292 -12.609  -9.588  0.00  0.00    +0.224 C 
ATOM      5  O   LEU A   1     -21.457 -13.508  -9.672  0.00  0.00    -0.287 OA
ENDBRANCH   1   4
BRANCH   1   6
ATOM      6  CB  LEU A   1     -21.521 -10.634  -8.249  0.00  0.00    +0.025 C 
BRANCH   6   7
ATOM      7  CG  LEU A   1     -20.419 -11.379  -7.483  0.00  0.00    +0.002 C 
ATOM      8  CD2 LEU A   1     -20.191 -10.701  -6.130  0.00  0.00    +0.000 C 
ATOM      9  CD1 LEU A   1     -19.127 -11.392  -8.299  0.00  0.00    +0.000 C 
ENDBRANCH   6   7
ENDBRANCH   1   6
TORSDOF 4
REMARK  Name = ../refined-set-2016/4j74/4j74_pocket.pdb
REMARK  137 active torsions:
REMARK  status: ('A' for Active; 'I' for Inactive)
REMARK    1  A    between atoms: _1  and  _3
REMARK    2  A    between atoms: _3  and  _4
REMARK    3  A    between atoms: _3  and  _6
REMARK    4  A    between atoms: _6  and  _7
REMARK    5  A    between atoms: _7  and  _8
REMARK    6  A    between atoms: _10  and  _12
REMARK    7  A    between atoms: _12  and  _13
REMARK    8  A    between atoms: _12  and  _15
REMARK    9  A    between atoms: _15  and  _16
REMARK   10  A    between atoms: _16  and  _17
REMARK   11  A    between atoms: _17  and  _18
REMARK   12  A    between atoms: _18  and  _19
REMARK   13  A    between atoms: _23  and  _25
REMARK   14  A    between atoms: _25  and  _26
REMARK   15  A    between atoms: _25  and  _28
REMARK   16  A    between atoms: _31  and  _33
REMARK   17  A    between atoms: _33  and  _34
REMARK   18  A    between atoms: _33  and  _36
REMARK   19  A    between atoms: _36  and  _37
REMARK   20  A    between atoms: _40  and  _42
REMARK   21  A    between atoms: _42  and  _43
REMARK   22  A    between atoms: _42  and  _45
REMARK   23  A    between atoms: _45  and  _46
REMARK   24  A    between atoms: _51  and  _52
REMARK   25  A    between atoms: _54  and  _56
REMARK   26  A    between atoms: _56  and  _57
REMARK   27  A    between atoms: _56  and  _59
REMARK   28  A    between atoms: _59  and  _60
REMARK   29  A    between atoms: _65  and  _67
REMARK   30  A    between atoms: _67  and  _68
REMARK   31  A    between atoms: _67  and  _70
REMARK   32  A    between atoms: _70  and  _71
REMARK   33  A    between atoms: _74  and  _76
REMARK   34  A    between atoms: _76  and  _77
REMARK   35  A    between atoms: _79  and  _81
REMARK   36  A    between atoms: _81  and  _82
REMARK   37  A    between atoms: _81  and  _84
REMARK   38  A    between atoms: _84  and  _85
REMARK   39  A    between atoms: _85  and  _86
REMARK   40  A    between atoms: _91  and  _93
REMARK   41  A    between atoms: _93  and  _94
REMARK   42  A    between atoms: _93  and  _96
REMARK   43  A    between atoms: _96  and  _97
REMARK   44  A    between atoms: _102  and  _103
REMARK   45  A    between atoms: _105  and  _107
REMARK   46  A    between atoms: _107  and  _108
REMARK   47  A    between atoms: _107  and  _110
REMARK   48  A    between atoms: _110  and  _111
REMARK   49  A    between atoms: _114  and  _116
REMARK   50  A    between atoms: _116  and  _117
REMARK   51  A    between atoms: _116  and  _119
REMARK   52  A    between atoms: _119  and  _120
REMARK   53  A    between atoms: _120  and  _121
REMARK   54  A    between atoms: _123  and  _125
REMARK   55  A    between atoms: _125  and  _126
REMARK   56  A    between atoms: _125  and  _128
REMARK   57  A    between atoms: _128  and  _129
REMARK   58  A    between atoms: _134  and  _135
REMARK   59  A    between atoms: _137  and  _139
REMARK   60  A    between atoms: _139  and  _140
REMARK   61  A    between atoms: _139  and  _142
REMARK   62  A    between atoms: _142  and  _143
REMARK   63  A    between atoms: _143  and  _144
REMARK   64  A    between atoms: _149  and  _151
REMARK   65  A    between atoms: _151  and  _152
REMARK   66  A    between atoms: _151  and  _154
REMARK   67  A    between atoms: _154  and  _155
REMARK   68  A    between atoms: _160  and  _162
REMARK   69  A    between atoms: _162  and  _163
REMARK   70  A    between atoms: _162  and  _165
REMARK   71  A    between atoms: _168  and  _170
REMARK   72  A    between atoms: _170  and  _171
REMARK   73  A    between atoms: _170  and  _173
REMARK   74  A    between atoms: _173  and  _174
REMARK   75  A    between atoms: _177  and  _179
REMARK   76  A    between atoms: _179  and  _180
REMARK   77  A    between atoms: _179  and  _182
REMARK   78  A    between atoms: _182  and  _183
REMARK   79  A    between atoms: _189  and  _191
REMARK   80  A    between atoms: _191  and  _192
REMARK   81  A    between atoms: _191  and  _194
REMARK   82  A    between atoms: _194  and  _195
REMARK   83  A    between atoms: _201  and  _203
REMARK   84  A    between atoms: _203  and  _204
REMARK   85  A    between atoms: _203  and  _206
REMARK   86  A    between atoms: _206  and  _207
REMARK   87  A    between atoms: _209  and  _211
REMARK   88  A    between atoms: _211  and  _212
REMARK   89  A    between atoms: _211  and  _214
REMARK   90  A    between atoms: _217  and  _219
REMARK   91  A    between atoms: _219  and  _220
REMARK   92  A    between atoms: _219  and  _222
REMARK   93  A    between atoms: _222  and  _223
REMARK   94  A    between atoms: _223  and  _224
REMARK   95  A    between atoms: _224  and  _225
REMARK   96  A    between atoms: _225  and  _226
REMARK   97  A    between atoms: _230  and  _232
REMARK   98  A    between atoms: _232  and  _233
REMARK   99  A    between atoms: _232  and  _235
REMARK  100  A    between atoms: _235  and  _236
REMARK  101  A    between atoms: _236  and  _237
REMARK  102  A    between atoms: _240  and  _242
REMARK  103  A    between atoms: _242  and  _243
REMARK  104  A    between atoms: _242  and  _245
REMARK  105  A    between atoms: _245  and  _246
REMARK  106  A    between atoms: _251  and  _253
REMARK  107  A    between atoms: _253  and  _254
REMARK  108  A    between atoms: _253  and  _256
REMARK  109  A    between atoms: _256  and  _257
REMARK  110  A    between atoms: _257  and  _258
REMARK  111  A    between atoms: _258  and  _259
REMARK  112  A    between atoms: _268  and  _270
REMARK  113  A    between atoms: _270  and  _271
REMARK  114  A    between atoms: _270  and  _273
REMARK  115  A    between atoms: _273  and  _274
REMARK  116  A    between atoms: _274  and  _275
REMARK  117  A    between atoms: _275  and  _276
REMARK  118  A    between atoms: _285  and  _287
REMARK  119  A    between atoms: _287  and  _288
REMARK  120  A    between atoms: _287  and  _290
REMARK  121  A    between atoms: _290  and  _291
REMARK  122  A    between atoms: _294  and  _296
REMARK  123  A    between atoms: _296  and  _297
REMARK  124  A    between atoms: _296  and  _299
REMARK  125  A    between atoms: _299  and  _300
REMARK  126  A    between atoms: _305  and  _306
REMARK  127  A    between atoms: _308  and  _310
REMARK  128  A    between atoms: _310  and  _311
REMARK  129  A    between atoms: _314  and  _316
REMARK  130  A    between atoms: _316  and  _317
REMARK  131  A    between atoms: _316  and  _319
REMARK  132  A    between atoms: _319  and  _320
REMARK  133  A    between atoms: _320  and  _321
REMARK  134  A    between atoms: _323  and  _325
REMARK  135  A    between atoms: _325  and  _326
REMARK  136  A    between atoms: _325  and  _328
REMARK  137  A    between atoms: _328  and  _329
REMARK                            x       y       z     vdW  Elec       q    Type
REMARK                         _______ _______ _______ _____ _____    ______ ____
ROOT
ATOM      1  CB  PHE A   1     -19.332 -16.121  -8.587  0.00  0.00    +0.051 C 
ENDROOT
BRANCH   1   2
ATOM      2  CG  PHE A   1     -18.157 -15.306  -8.119  0.00  0.00    -0.020 A 
ATOM      3  CD2 PHE A   1     -18.034 -14.969  -6.781  0.00  0.00    -0.004 A 
ATOM      4  CE2 PHE A   1     -16.954 -14.238  -6.329  0.00  0.00    -0.000 A 
ATOM      5  CZ  PHE A   1     -15.978 -13.831  -7.218  0.00  0.00    -0.000 A 
ATOM      6  CE1 PHE A   1     -16.084 -14.157  -8.554  0.00  0.00    -0.000 A 
ATOM      7  CD1 PHE A   1     -17.172 -14.892  -9.002  0.00  0.00    -0.004 A 
ENDBRANCH   1   2
BRANCH   1   8
ATOM      8  CA  PHE A   1     -19.255 -16.553 -10.055  0.00  0.00    +0.137 C 
BRANCH   8   9
ATOM      9  N   PHE A   1     -19.790 -15.505 -10.921  0.00  0.00    -0.239 NA
ATOM     10  H   PHE A   1     -20.558 -14.898 -10.568  0.00  0.00    +0.142 HD
ENDBRANCH   8   9
BRANCH   8  11
ATOM     11  C   PHE A   1     -19.988 -17.883 -10.215  0.00  0.00    +0.224 C 
ATOM     12  O   PHE A   1     -19.456 -18.932  -9.859  0.00  0.00    -0.287 OA
ENDBRANCH   8  11
ENDBRANCH   1   8
TORSDOF 4
REMARK  Name = ../refined-set-2016/4j74/4j74_pocket.pdb
REMARK  137 active torsions:
REMARK  status: ('A' for Active; 'I' for Inactive)
REMARK    1  A    between atoms: _1  and  _3
REMARK    2  A    between atoms: _3  and  _4
REMARK    3  A    between atoms: _3  and  _6
REMARK    4  A    between atoms: _6  and  _7
REMARK    5  A    between atoms: _7  and  _8
REMARK    6  A    between atoms: _10  and  _12
REMARK    7  A    between atoms: _12  and  _13
REMARK    8  A    between atoms: _12  and  _15
REMARK    9  A    between atoms: _15  and  _16
REMARK   10  A    between atoms: _16  and  _17
REMARK   11  A    between atoms: _17  and  _18
REMARK   12  A    between atoms: _18  and  _19
REMARK   13  A    between atoms: _23  and  _25
REMARK   14  A    between atoms: _25  and  _26
REMARK   15  A    between atoms: _25  and  _28
REMARK   16  A    between atoms: _31  and  _33
REMARK   17  A    between atoms: _33  and  _34
REMARK   18  A    between atoms: _33  and  _36
REMARK   19  A    between atoms: _36  and  _37
REMARK   20  A    between atoms: _40  and  _42
REMARK   21  A    between atoms: _42  and  _43
REMARK   22  A    between atoms: _42  and  _45
REMARK   23  A    between atoms: _45  and  _46
REMARK   24  A    between atoms: _51  and  _52
REMARK   25  A    between atoms: _54  and  _56
REMARK   26  A    between atoms: _56  and  _57
REMARK   27  A    between atoms: _56  and  _59
REMARK   28  A    between atoms: _59  and  _60
REMARK   29  A    between atoms: _65  and  _67
REMARK   30  A    between atoms: _67  and  _68
REMARK   31  A    between atoms: _67  and  _70
REMARK   32  A    between atoms: _70  and  _71
REMARK   33  A    between atoms: _74  and  _76
REMARK   34  A    between atoms: _76  and  _77
REMARK   35  A    between atoms: _79  and  _81
REMARK   36  A    between atoms: _81  and  _82
REMARK   37  A    between atoms: _81  and  _84
REMARK   38  A    between atoms: _84  and  _85
REMARK   39  A    between atoms: _85  and  _86
REMARK   40  A    between atoms: _91  and  _93
REMARK   41  A    between atoms: _93  and  _94
REMARK   42  A    between atoms: _93  and  _96
REMARK   43  A    between atoms: _96  and  _97
REMARK   44  A    between atoms: _102  and  _103
REMARK   45  A    between atoms: _105  and  _107
REMARK   46  A    between atoms: _107  and  _108
REMARK   47  A    between atoms: _107  and  _110
REMARK   48  A    between atoms: _110  and  _111
REMARK   49  A    between atoms: _114  and  _116
REMARK   50  A    between atoms: _116  and  _117
REMARK   51  A    between atoms: _116  and  _119
REMARK   52  A    between atoms: _119  and  _120
REMARK   53  A    between atoms: _120  and  _121
REMARK   54  A    between atoms: _123  and  _125
REMARK   55  A    between atoms: _125  and  _126
REMARK   56  A    between atoms: _125  and  _128
REMARK   57  A    between atoms: _128  and  _129
REMARK   58  A    between atoms: _134  and  _135
REMARK   59  A    between atoms: _137  and  _139
REMARK   60  A    between atoms: _139  and  _140
REMARK   61  A    between atoms: _139  and  _142
REMARK   62  A    between atoms: _142  and  _143
REMARK   63  A    between atoms: _143  and  _144
REMARK   64  A    between atoms: _149  and  _151
REMARK   65  A    between atoms: _151  and  _152
REMARK   66  A    between atoms: _151  and  _154
REMARK   67  A    between atoms: _154  and  _155
REMARK   68  A    between atoms: _160  and  _162
REMARK   69  A    between atoms: _162  and  _163
REMARK   70  A    between atoms: _162  and  _165
REMARK   71  A    between atoms: _168  and  _170
REMARK   72  A    between atoms: _170  and  _171
REMARK   73  A    between atoms: _170  and  _173
REMARK   74  A    between atoms: _173  and  _174
REMARK   75  A    between atoms: _177  and  _179
REMARK   76  A    between atoms: _179  and  _180
REMARK   77  A    between atoms: _179  and  _182
REMARK   78  A    between atoms: _182  and  _183
REMARK   79  A    between atoms: _189  and  _191
REMARK   80  A    between atoms: _191  and  _192
REMARK   81  A    between atoms: _191  and  _194
REMARK   82  A    between atoms: _194  and  _195
REMARK   83  A    between atoms: _201  and  _203
REMARK   84  A    between atoms: _203  and  _204
REMARK   85  A    between atoms: _203  and  _206
REMARK   86  A    between atoms: _206  and  _207
REMARK   87  A    between atoms: _209  and  _211
REMARK   88  A    between atoms: _211  and  _212
REMARK   89  A    between atoms: _211  and  _214
REMARK   90  A    between atoms: _217  and  _219
REMARK   91  A    between atoms: _219  and  _220
REMARK   92  A    between atoms: _219  and  _222
REMARK   93  A    between atoms: _222  and  _223
REMARK   94  A    between atoms: _223  and  _224
REMARK   95  A    between atoms: _224  and  _225
REMARK   96  A    between atoms: _225  and  _226
REMARK   97  A    between atoms: _230  and  _232
REMARK   98  A    between atoms: _232  and  _233
REMARK   99  A    between atoms: _232  and  _235
REMARK  100  A    between atoms: _235  and  _236
REMARK  101  A    between atoms: _236  and  _237
REMARK  102  A    between atoms: _240  and  _242
REMARK  103  A    between atoms: _242  and  _243
REMARK  104  A    between atoms: _242  and  _245
REMARK  105  A    between atoms: _245  and  _246
REMARK  106  A    between atoms: _251  and  _253
REMARK  107  A    between atoms: _253  and  _254
REMARK  108  A    between atoms: _253  and  _256
REMARK  109  A    between atoms: _256  and  _257
REMARK  110  A    between atoms: _257  and  _258
REMARK  111  A    between atoms: _258  and  _259
REMARK  112  A    between atoms: _268  and  _270
REMARK  113  A    between atoms: _270  and  _271
REMARK  114  A    between atoms: _270  and  _273
REMARK  115  A    between atoms: _273  and  _274
REMARK  116  A    between atoms: _274  and  _275
REMARK  117  A    between atoms: _275  and  _276
REMARK  118  A    between atoms: _285  and  _287
REMARK  119  A    between atoms: _287  and  _288
REMARK  120  A    between atoms: _287  and  _290
REMARK  121  A    between atoms: _290  and  _291
REMARK  122  A    between atoms: _294  and  _296
REMARK  123  A    between atoms: _296  and  _297
REMARK  124  A    between atoms: _296  and  _299
REMARK  125  A    between atoms: _299  and  _300
REMARK  126  A    between atoms: _305  and  _306
REMARK  127  A    between atoms: _308  and  _310
REMARK  128  A    between atoms: _310  and  _311
REMARK  129  A    between atoms: _314  and  _316
REMARK  130  A    between atoms: _316  and  _317
REMARK  131  A    between atoms: _316  and  _319
REMARK  132  A    between atoms: _319  and  _320
REMARK  133  A    between atoms: _320  and  _321
REMARK  134  A    between atoms: _323  and  _325
REMARK  135  A    between atoms: _325  and  _326
REMARK  136  A    between atoms: _325  and  _328
REMARK  137  A    between atoms: _328  and  _329
REMARK                            x       y       z     vdW  Elec       q    Type
REMARK                         _______ _______ _______ _____ _____    ______ ____
ROOT
ATOM      1  CA  ARG A   7     -10.836 -22.122  -1.622  0.00  0.00    +0.149 C 
ENDROOT
BRANCH   1   2
ATOM      2  C   ARG A   7     -11.928 -21.968  -2.681  0.00  0.00    +0.241 C 
ATOM      3  N   ARG A   8     -13.179 -21.906  -2.240  0.00  0.00    -0.297 N 
ATOM      4  H   ARG A   8     -13.363 -21.978  -1.219  0.00  0.00    +0.150 HD
ATOM      5  O   ARG A   7     -11.644 -21.896  -3.874  0.00  0.00    -0.273 OA
BRANCH   3   6
ATOM      6  CA  ARG A   8     -14.298 -21.739  -3.157  0.00  0.00    +0.149 C 
BRANCH   6   7
ATOM      7  C   ARG A   8     -14.212 -20.415  -3.916  0.00  0.00    +0.241 C 
ATOM      8  N   ILE A   9     -13.846 -19.349  -3.215  0.00  0.00    -0.297 N 
ATOM      9  H   ILE A   9     -13.646 -19.448  -2.199  0.00  0.00    +0.150 HD
ATOM     10  O   ARG A   8     -14.478 -20.363  -5.116  0.00  0.00    -0.273 OA
BRANCH   8  11
ATOM     11  CA  ILE A   9     -13.720 -18.044  -3.847  0.00  0.00    +0.149 C 
BRANCH  11  12
ATOM     12  C   ILE A   9     -12.590 -18.013  -4.875  0.00  0.00    +0.241 C 
ATOM     13  N   TYR A  10     -11.449 -18.601  -4.530  0.00  0.00    -0.297 N 
ATOM     14  H   TYR A  10     -11.336 -18.987  -3.571  0.00  0.00    +0.150 HD
ATOM     15  O   ILE A   9     -12.755 -17.476  -5.976  0.00  0.00    -0.273 OA
BRANCH  13  16
ATOM     16  CA  TYR A  10     -10.352 -18.708  -5.490  0.00  0.00    +0.153 C 
BRANCH  16  17
ATOM     17  C   TYR A  10     -10.796 -19.462  -6.745  0.00  0.00    +0.241 C 
ATOM     18  N   ALA A  11     -11.567 -20.530  -6.570  0.00  0.00    -0.297 N 
ATOM     19  H   ALA A  11     -11.837 -20.811  -5.606  0.00  0.00    +0.150 HD
ATOM     20  O   TYR A  10     -10.459 -19.069  -7.862  0.00  0.00    -0.273 OA
BRANCH  18  21
ATOM     21  CA  ALA A  11     -12.044 -21.319  -7.705  0.00  0.00    +0.149 C 
ATOM     22  CB  ALA A  11     -12.751 -22.569  -7.207  0.00  0.00    +0.031 C 
BRANCH  21  23
ATOM     23  C   ALA A  11     -12.984 -20.514  -8.601  0.00  0.00    +0.241 C 
ATOM     24  N   MET A  12     -13.864 -19.726  -7.991  0.00  0.00    -0.297 N 
ATOM     25  H   MET A  12     -13.880 -19.681  -6.952  0.00  0.00    +0.150 HD
ATOM     26  O   ALA A  11     -12.919 -20.609  -9.828  0.00  0.00    -0.273 OA
BRANCH  24  27
ATOM     27  CA  MET A  12     -14.805 -18.926  -8.759  0.00  0.00    +0.149 C 
BRANCH  27  28
ATOM     28  C   MET A  12     -14.080 -17.834  -9.538  0.00  0.00    +0.241 C 
ATOM     29  N   ILE A  13     -13.015 -17.294  -8.958  0.00  0.00    -0.298 N 
ATOM     30  H   ILE A  13     -12.766 -17.571  -7.987  0.00  0.00    +0.150 HD
ATOM     31  O   MET A  12     -14.472 -17.496 -10.652  0.00  0.00    -0.273 OA
BRANCH  29  32
ATOM     32  CA  ILE A  13     -12.191 -16.323  -9.657  0.00  0.00    +0.137 C 
BRANCH  32  33
ATOM     33  C   ILE A  13     -11.386 -16.970 -10.783  0.00  0.00    +0.227 C 
ATOM     34  O   ILE A  13     -11.292 -16.417 -11.881  0.00  0.00    -0.286 OA
ENDBRANCH  32  33
BRANCH  32  35
ATOM     35  CB  ILE A  13     -11.242 -15.614  -8.672  0.00  0.00    +0.026 C 
ATOM     36  CG2 ILE A  13     -10.179 -14.827  -9.431  0.00  0.00    +0.002 C 
BRANCH  35  37
ATOM     37  CG1 ILE A  13     -12.064 -14.709  -7.746  0.00  0.00    +0.002 C 
ATOM     38  CD1 ILE A  13     -11.302 -14.183  -6.541  0.00  0.00    +0.000 C 
ENDBRANCH  35  37
ENDBRANCH  32  35
ENDBRANCH  29  32
ENDBRANCH  27  28
BRANCH  27  39
ATOM     39  CB  MET A  12     -15.863 -18.315  -7.832  0.00  0.00    +0.041 C 
BRANCH  39  40
ATOM     40  CG  MET A  12     -16.775 -19.360  -7.190  0.00  0.00    +0.060 C 
BRANCH  40  41
ATOM     41  SD  MET A  12     -18.165 -18.699  -6.248  0.00  0.00    -0.139 S 
ATOM     42  CE  MET A  12     -17.308 -17.840  -4.956  0.00  0.00    +0.069 C 
ENDBRANCH  40  41
ENDBRANCH  39  40
ENDBRANCH  27  39
ENDBRANCH  24  27
ENDBRANCH  21  23
ENDBRANCH  18  21
ENDBRANCH  16  17
BRANCH  16  43
ATOM     43  CB  TYR A  10      -9.141 -19.403  -4.846  0.00  0.00    +0.055 C 
BRANCH  43  44
ATOM     44  CG  TYR A  10      -8.154 -18.442  -4.220  0.00  0.00    -0.020 A 
ATOM     45  CD2 TYR A  10      -8.482 -17.714  -3.085  0.00  0.00    -0.001 A 
ATOM     46  CE2 TYR A  10      -7.595 -16.801  -2.540  0.00  0.00    +0.036 A 
ATOM     47  CZ  TYR A  10      -6.364 -16.606  -3.133  0.00  0.00    +0.134 A 
ATOM     48  CE1 TYR A  10      -6.016 -17.318  -4.255  0.00  0.00    +0.036 A 
ATOM     49  CD1 TYR A  10      -6.904 -18.229  -4.791  0.00  0.00    -0.001 A 
BRANCH  47  50
ATOM     50  OH  TYR A  10      -5.477 -15.688  -2.613  0.00  0.00    -0.506 OA
ATOM     51  HH  TYR A  10      -5.875 -15.264  -1.812  0.00  0.00    +0.292 HD
ENDBRANCH  47  50
ENDBRANCH  43  44
ENDBRANCH  16  43
ENDBRANCH  13  16
ENDBRANCH  11  12
BRANCH  11  52
ATOM     52  CB  ILE A   9     -13.500 -16.944  -2.787  0.00  0.00    +0.027 C 
ATOM     53  CG2 ILE A   9     -13.034 -15.657  -3.447  0.00  0.00    +0.002 C 
BRANCH  52  54
ATOM     54  CG1 ILE A   9     -14.798 -16.727  -2.004  0.00  0.00    +0.002 C 
ATOM     55  CD1 ILE A   9     -14.635 -15.883  -0.759  0.00  0.00    +0.000 C 
ENDBRANCH  52  54
ENDBRANCH  11  52
ENDBRANCH   8  11
ENDBRANCH   6   7
BRANCH   6  56
ATOM     56  CB  ARG A   8     -15.613 -21.798  -2.379  0.00  0.00    +0.033 C 
BRANCH  56  57
ATOM     57  CG  ARG A   8     -16.857 -21.578  -3.217  0.00  0.00    +0.045 C 
BRANCH  57  58
ATOM     58  CD  ARG A   8     -18.072 -21.407  -2.318  0.00  0.00    +0.174 C 
BRANCH  58  59
ATOM     59  NE  ARG A   8     -19.312 -21.257  -3.072  0.00  0.00    -0.265 N 
ATOM     60  CZ  ARG A   8     -20.504 -21.080  -2.511  0.00  0.00    +0.342 C 
ATOM     61  NH2 ARG A   8     -20.615 -21.033  -1.191  0.00  0.00    -0.292 N 
ATOM     62 HH21 ARG A   8     -19.769 -21.135  -0.594  0.00  0.00    +0.255 HD
ATOM     63 HH22 ARG A   8     -21.548 -20.895  -0.752  0.00  0.00    +0.255 HD
ATOM     64  NH1 ARG A   8     -21.585 -20.952  -3.267  0.00  0.00    -0.292 N 
ATOM     65 HH11 ARG A   8     -22.516 -20.814  -2.824  0.00  0.00    +0.255 HD
ATOM     66 HH12 ARG A   8     -21.502 -20.990  -4.303  0.00  0.00    +0.255 HD
ATOM     67  HE  ARG A   8     -19.260 -21.291  -4.110  0.00  0.00    +0.259 HD
ENDBRANCH  58  59
ENDBRANCH  57  58
ENDBRANCH  56  57
ENDBRANCH   6  56
ENDBRANCH   3   6
ENDBRANCH   1   2
BRANCH   1  69
ATOM     68  C   HIS A   6     -11.215 -19.968  -0.630  0.00  0.00    +0.241 C 
ATOM     69  N   ARG A   7     -11.151 -21.284  -0.475  0.00  0.00    -0.297 N 
ATOM     70  H   ARG A   7     -11.324 -21.712   0.457  0.00  0.00    +0.150 HD
ATOM     71  O   HIS A   6     -10.983 -19.425  -1.709  0.00  0.00    -0.273 OA
BRANCH  68  72
ATOM     72  CA  HIS A   6     -11.593 -19.134   0.587  0.00  0.00    +0.155 C 
BRANCH  72  74
ATOM     73  C   GLU A   5     -13.876 -19.838   1.057  0.00  0.00    +0.241 C 
ATOM     74  N   HIS A   6     -12.607 -19.742   1.439  0.00  0.00    -0.297 N 
ATOM     75  H   HIS A   6     -12.330 -20.111   2.371  0.00  0.00    +0.150 HD
ATOM     76  O   GLU A   5     -14.249 -19.599  -0.091  0.00  0.00    -0.273 OA
BRANCH  73  77
ATOM     77  CA  GLU A   5     -14.855 -20.263   2.150  0.00  0.00    +0.149 C 
BRANCH  77  80
ATOM     78  C   LYS A   4     -14.605 -18.888   4.127  0.00  0.00    +0.241 C 
ATOM     79  O   LYS A   4     -13.749 -19.648   4.581  0.00  0.00    -0.273 OA
ATOM     80  N   GLU A   5     -15.212 -19.110   2.966  0.00  0.00    -0.297 N 
ATOM     81  H   GLU A   5     -15.949 -18.454   2.637  0.00  0.00    +0.150 HD
BRANCH  78  82
ATOM     82  CA  LYS A   4     -15.009 -17.634   4.896  0.00  0.00    +0.149 C 
BRANCH  82  84
ATOM     83  C   VAL A   3     -15.368 -15.800   3.345  0.00  0.00    +0.241 C 
ATOM     84  N   LYS A   4     -15.875 -16.757   4.116  0.00  0.00    -0.297 N 
ATOM     85  H   LYS A   4     -16.906 -16.882   4.164  0.00  0.00    +0.150 HD
ATOM     86  O   VAL A   3     -14.156 -15.602   3.234  0.00  0.00    -0.273 OA
BRANCH  83  87
ATOM     87  CA  VAL A   3     -16.365 -14.934   2.589  0.00  0.00    +0.149 C 
BRANCH  87  89
ATOM     88  C   SER A   2     -18.032 -16.628   2.096  0.00  0.00    +0.243 C 
ATOM     89  N   VAL A   3     -17.718 -15.476   2.678  0.00  0.00    -0.297 N 
ATOM     90  H   VAL A   3     -18.446 -14.953   3.205  0.00  0.00    +0.150 HD
ATOM     91  O   SER A   2     -17.229 -17.277   1.433  0.00  0.00    -0.273 OA
BRANCH  88  92
ATOM     92  CA  SER A   2     -19.454 -17.140   2.298  0.00  0.00    +0.178 C 
BRANCH  92  94
ATOM     93  C   PHE A   1     -20.860 -16.915   0.331  0.00  0.00    +0.239 C 
ATOM     94  N   SER A   2     -19.997 -17.626   1.044  0.00  0.00    -0.295 N 
ATOM     95  H   SER A   2     -19.701 -18.559   0.694  0.00  0.00    +0.150 HD
ATOM     96  O   PHE A   1     -21.300 -15.817   0.693  0.00  0.00    -0.274 OA
BRANCH  93  97
ATOM     97  CA  PHE A   1     -21.307 -17.552  -0.972  0.00  0.00    +0.149 C 
BRANCH  97  98
ATOM     98  N   PHE A   1     -22.507 -16.904  -1.469  0.00  0.00    -0.238 NA
ATOM     99  H   PHE A   1     -22.633 -15.881  -1.330  0.00  0.00    +0.142 HD
ENDBRANCH  97  98
BRANCH  97 100
ATOM    100  CB  PHE A   1     -20.178 -17.503  -2.014  0.00  0.00    +0.053 C 
BRANCH 100 101
ATOM    101  CG  PHE A   1     -19.633 -16.124  -2.281  0.00  0.00    -0.020 A 
ATOM    102  CD2 PHE A   1     -18.515 -15.658  -1.602  0.00  0.00    -0.004 A 
ATOM    103  CE2 PHE A   1     -17.972 -14.418  -1.896  0.00  0.00    -0.000 A 
ATOM    104  CZ  PHE A   1     -18.544 -13.635  -2.874  0.00  0.00    -0.000 A 
ATOM    105  CE1 PHE A   1     -19.660 -14.087  -3.555  0.00  0.00    -0.000 A 
ATOM    106  CD1 PHE A   1     -20.199 -15.324  -3.257  0.00  0.00    -0.004 A 
ENDBRANCH 100 101
ENDBRANCH  97 100
ENDBRANCH  93  97
ENDBRANCH  92  94
BRANCH  92 107
ATOM    107  CB  SER A   2     -19.451 -18.267   3.329  0.00  0.00    +0.166 C 
BRANCH 107 108
ATOM    108  OG  SER A   2     -18.718 -17.891   4.477  0.00  0.00    -0.380 OA
ATOM    109  H   SER A   2     -18.728 -18.634   5.132  0.00  0.00    +0.211 HD
ENDBRANCH 107 108
ENDBRANCH  92 107
ENDBRANCH  88  92
ENDBRANCH  87  89
BRANCH  87 110
ATOM    110  CB  VAL A   3     -16.278 -13.506   3.159  0.00  0.00    +0.027 C 
ATOM    111  CG2 VAL A   3     -16.614 -13.514   4.638  0.00  0.00    +0.002 C 
ATOM    112  CG1 VAL A   3     -17.214 -12.587   2.396  0.00  0.00    +0.002 C 
ENDBRANCH  87 110
ENDBRANCH  83  87
ENDBRANCH  82  84
BRANCH  82 113
ATOM    113  CB  LYS A   4     -15.693 -18.022   6.211  0.00  0.00    +0.029 C 
BRANCH 113 114
ATOM    114  CG  LYS A   4     -15.840 -16.858   7.178  0.00  0.00    +0.000 C 
BRANCH 114 115
ATOM    115  CD  LYS A   4     -16.501 -17.282   8.475  0.00  0.00    -0.024 C 
BRANCH 115 116
ATOM    116  CE  LYS A   4     -16.577 -16.120   9.451  0.00  0.00    -0.086 C 
BRANCH 116 117
ATOM    117  NZ  LYS A   4     -15.225 -15.572   9.761  0.00  0.00    +0.380 N 
ATOM    118  HZ1 LYS A   4     -15.318 -14.781  10.430  0.00  0.00    -0.089 HD
ATOM    119  HZ2 LYS A   4     -14.638 -16.319  10.185  0.00  0.00    -0.089 HD
ATOM    120  HZ3 LYS A   4     -14.779 -15.235   8.884  0.00  0.00    -0.089 HD
ENDBRANCH 116 117
ENDBRANCH 115 116
ENDBRANCH 114 115
ENDBRANCH 113 114
ENDBRANCH  82 113
ENDBRANCH  78  82
ENDBRANCH  77  80
BRANCH  77 121
ATOM    121  CB  GLU A   5     -16.123 -20.903   1.566  0.00  0.00    +0.041 C 
BRANCH 121 122
ATOM    122  CG  GLU A   5     -17.091 -21.380   2.657  0.00  0.00    +0.116 C 
BRANCH 122 123
ATOM    123  CD  GLU A   5     -18.200 -22.293   2.149  0.00  0.00    +0.365 C 
ATOM    124  OE2 GLU A   5     -18.564 -23.242   2.878  0.00  0.00    -0.246 OA
ATOM    125  OE1 GLU A   5     -18.710 -22.062   1.033  0.00  0.00    -0.246 OA
ENDBRANCH 122 123
ENDBRANCH 121 122
ENDBRANCH  77 121
ENDBRANCH  73  77
ENDBRANCH  72  74
BRANCH  72 126
ATOM    126  CB  HIS A   6     -10.346 -18.824   1.415  0.00  0.00    +0.076 C 
BRANCH 126 127
ATOM    127  CG  HIS A   6     -10.550 -17.722   2.407  0.00  0.00    +0.082 A 
ATOM    128  CD2 HIS A   6     -11.679 -17.228   2.967  0.00  0.00    +0.115 A 
ATOM    129  NE2 HIS A   6     -11.307 -16.190   3.786  0.00  0.00    -0.221 NA
ATOM    130  CE1 HIS A   6      -9.994 -16.053   3.735  0.00  0.00    +0.199 A 
ATOM    131  ND1 HIS A   6      -9.514 -16.966   2.910  0.00  0.00    -0.227 NA
ENDBRANCH 126 127
ENDBRANCH  72 126
ENDBRANCH  68  72
ENDBRANCH   1  69
BRANCH   1 132
ATOM    132  CB  ARG A   7     -10.708 -23.589  -1.199  0.00  0.00    +0.033 C 
BRANCH 132 133
ATOM    133  CG  ARG A   7      -9.677 -23.831  -0.098  0.00  0.00    +0.045 C 
BRANCH 133 134
ATOM    134  CD  ARG A   7      -9.310 -25.306   0.015  0.00  0.00    +0.174 C 
BRANCH 134 135
ATOM    135  NE  ARG A   7      -8.511 -25.730  -1.129  0.00  0.00    -0.265 N 
ATOM    136  CZ  ARG A   7      -7.288 -26.243  -1.048  0.00  0.00    +0.342 C 
ATOM    137  NH2 ARG A   7      -6.701 -26.414   0.131  0.00  0.00    -0.292 N 
ATOM    138 HH21 ARG A   7      -7.199 -26.145   1.004  0.00  0.00    +0.255 HD
ATOM    139 HH22 ARG A   7      -5.743 -26.817   0.182  0.00  0.00    +0.255 HD
ATOM    140  NH1 ARG A   7      -6.642 -26.568  -2.157  0.00  0.00    -0.292 N 
ATOM    141 HH11 ARG A   7      -5.684 -26.970  -2.102  0.00  0.00    +0.255 HD
ATOM    142 HH12 ARG A   7      -7.092 -26.421  -3.083  0.00  0.00    +0.255 HD
ATOM    143  HE  ARG A   7      -8.928 -25.623  -2.076  0.00  0.00    +0.259 HD
ENDBRANCH 134 135
ENDBRANCH 133 134
ENDBRANCH 132 133
ENDBRANCH   1 132
TORSDOF 59
REMARK  Name = ../refined-set-2016/4j74/4j74_pocket.pdb
REMARK  137 active torsions:
REMARK  status: ('A' for Active; 'I' for Inactive)
REMARK    1  A    between atoms: _1  and  _3
REMARK    2  A    between atoms: _3  and  _4
REMARK    3  A    between atoms: _3  and  _6
REMARK    4  A    between atoms: _6  and  _7
REMARK    5  A    between atoms: _7  and  _8
REMARK    6  A    between atoms: _10  and  _12
REMARK    7  A    between atoms: _12  and  _13
REMARK    8  A    between atoms: _12  and  _15
REMARK    9  A    between atoms: _15  and  _16
REMARK   10  A    between atoms: _16  and  _17
REMARK   11  A    between atoms: _17  and  _18
REMARK   12  A    between atoms: _18  and  _19
REMARK   13  A    between atoms: _23  and  _25
REMARK   14  A    between atoms: _25  and  _26
REMARK   15  A    between atoms: _25  and  _28
REMARK   16  A    between atoms: _31  and  _33
REMARK   17  A    between atoms: _33  and  _34
REMARK   18  A    between atoms: _33  and  _36
REMARK   19  A    between atoms: _36  and  _37
REMARK   20  A    between atoms: _40  and  _42
REMARK   21  A    between atoms: _42  and  _43
REMARK   22  A    between atoms: _42  and  _45
REMARK   23  A    between atoms: _45  and  _46
REMARK   24  A    between atoms: _51  and  _52
REMARK   25  A    between atoms: _54  and  _56
REMARK   26  A    between atoms: _56  and  _57
REMARK   27  A    between atoms: _56  and  _59
REMARK   28  A    between atoms: _59  and  _60
REMARK   29  A    between atoms: _65  and  _67
REMARK   30  A    between atoms: _67  and  _68
REMARK   31  A    between atoms: _67  and  _70
REMARK   32  A    between atoms: _70  and  _71
REMARK   33  A    between atoms: _74  and  _76
REMARK   34  A    between atoms: _76  and  _77
REMARK   35  A    between atoms: _79  and  _81
REMARK   36  A    between atoms: _81  and  _82
REMARK   37  A    between atoms: _81  and  _84
REMARK   38  A    between atoms: _84  and  _85
REMARK   39  A    between atoms: _85  and  _86
REMARK   40  A    between atoms: _91  and  _93
REMARK   41  A    between atoms: _93  and  _94
REMARK   42  A    between atoms: _93  and  _96
REMARK   43  A    between atoms: _96  and  _97
REMARK   44  A    between atoms: _102  and  _103
REMARK   45  A    between atoms: _105  and  _107
REMARK   46  A    between atoms: _107  and  _108
REMARK   47  A    between atoms: _107  and  _110
REMARK   48  A    between atoms: _110  and  _111
REMARK   49  A    between atoms: _114  and  _116
REMARK   50  A    between atoms: _116  and  _117
REMARK   51  A    between atoms: _116  and  _119
REMARK   52  A    between atoms: _119  and  _120
REMARK   53  A    between atoms: _120  and  _121
REMARK   54  A    between atoms: _123  and  _125
REMARK   55  A    between atoms: _125  and  _126
REMARK   56  A    between atoms: _125  and  _128
REMARK   57  A    between atoms: _128  and  _129
REMARK   58  A    between atoms: _134  and  _135
REMARK   59  A    between atoms: _137  and  _139
REMARK   60  A    between atoms: _139  and  _140
REMARK   61  A    between atoms: _139  and  _142
REMARK   62  A    between atoms: _142  and  _143
REMARK   63  A    between atoms: _143  and  _144
REMARK   64  A    between atoms: _149  and  _151
REMARK   65  A    between atoms: _151  and  _152
REMARK   66  A    between atoms: _151  and  _154
REMARK   67  A    between atoms: _154  and  _155
REMARK   68  A    between atoms: _160  and  _162
REMARK   69  A    between atoms: _162  and  _163
REMARK   70  A    between atoms: _162  and  _165
REMARK   71  A    between atoms: _168  and  _170
REMARK   72  A    between atoms: _170  and  _171
REMARK   73  A    between atoms: _170  and  _173
REMARK   74  A    between atoms: _173  and  _174
REMARK   75  A    between atoms: _177  and  _179
REMARK   76  A    between atoms: _179  and  _180
REMARK   77  A    between atoms: _179  and  _182
REMARK   78  A    between atoms: _182  and  _183
REMARK   79  A    between atoms: _189  and  _191
REMARK   80  A    between atoms: _191  and  _192
REMARK   81  A    between atoms: _191  and  _194
REMARK   82  A    between atoms: _194  and  _195
REMARK   83  A    between atoms: _201  and  _203
REMARK   84  A    between atoms: _203  and  _204
REMARK   85  A    between atoms: _203  and  _206
REMARK   86  A    between atoms: _206  and  _207
REMARK   87  A    between atoms: _209  and  _211
REMARK   88  A    between atoms: _211  and  _212
REMARK   89  A    between atoms: _211  and  _214
REMARK   90  A    between atoms: _217  and  _219
REMARK   91  A    between atoms: _219  and  _220
REMARK   92  A    between atoms: _219  and  _222
REMARK   93  A    between atoms: _222  and  _223
REMARK   94  A    between atoms: _223  and  _224
REMARK   95  A    between atoms: _224  and  _225
REMARK   96  A    between atoms: _225  and  _226
REMARK   97  A    between atoms: _230  and  _232
REMARK   98  A    between atoms: _232  and  _233
REMARK   99  A    between atoms: _232  and  _235
REMARK  100  A    between atoms: _235  and  _236
REMARK  101  A    between atoms: _236  and  _237
REMARK  102  A    between atoms: _240  and  _242
REMARK  103  A    between atoms: _242  and  _243
REMARK  104  A    between atoms: _242  and  _245
REMARK  105  A    between atoms: _245  and  _246
REMARK  106  A    between atoms: _251  and  _253
REMARK  107  A    between atoms: _253  and  _254
REMARK  108  A    between atoms: _253  and  _256
REMARK  109  A    between atoms: _256  and  _257
REMARK  110  A    between atoms: _257  and  _258
REMARK  111  A    between atoms: _258  and  _259
REMARK  112  A    between atoms: _268  and  _270
REMARK  113  A    between atoms: _270  and  _271
REMARK  114  A    between atoms: _270  and  _273
REMARK  115  A    between atoms: _273  and  _274
REMARK  116  A    between atoms: _274  and  _275
REMARK  117  A    between atoms: _275  and  _276
REMARK  118  A    between atoms: _285  and  _287
REMARK  119  A    between atoms: _287  and  _288
REMARK  120  A    between atoms: _287  and  _290
REMARK  121  A    between atoms: _290  and  _291
REMARK  122  A    between atoms: _294  and  _296
REMARK  123  A    between atoms: _296  and  _297
REMARK  124  A    between atoms: _296  and  _299
REMARK  125  A    between atoms: _299  and  _300
REMARK  126  A    between atoms: _305  and  _306
REMARK  127  A    between atoms: _308  and  _310
REMARK  128  A    between atoms: _310  and  _311
REMARK  129  A    between atoms: _314  and  _316
REMARK  130  A    between atoms: _316  and  _317
REMARK  131  A    between atoms: _316  and  _319
REMARK  132  A    between atoms: _319  and  _320
REMARK  133  A    between atoms: _320  and  _321
REMARK  134  A    between atoms: _323  and  _325
REMARK  135  A    between atoms: _325  and  _326
REMARK  136  A    between atoms: _325  and  _328
REMARK  137  A    between atoms: _328  and  _329
REMARK                            x       y       z     vdW  Elec       q    Type
REMARK                         _______ _______ _______ _____ _____    ______ ____
ROOT
ATOM      1  O   HOH     1      -9.441  -8.392   0.348  0.00  0.00    +0.000 OA
ENDROOT
TORSDOF 0
REMARK  Name = ../refined-set-2016/4j74/4j74_pocket.pdb
REMARK  137 active torsions:
REMARK  status: ('A' for Active; 'I' for Inactive)
REMARK    1  A    between atoms: _1  and  _3
REMARK    2  A    between atoms: _3  and  _4
REMARK    3  A    between atoms: _3  and  _6
REMARK    4  A    between atoms: _6  and  _7
REMARK    5  A    between atoms: _7  and  _8
REMARK    6  A    between atoms: _10  and  _12
REMARK    7  A    between atoms: _12  and  _13
REMARK    8  A    between atoms: _12  and  _15
REMARK    9  A    between atoms: _15  and  _16
REMARK   10  A    between atoms: _16  and  _17
REMARK   11  A    between atoms: _17  and  _18
REMARK   12  A    between atoms: _18  and  _19
REMARK   13  A    between atoms: _23  and  _25
REMARK   14  A    between atoms: _25  and  _26
REMARK   15  A    between atoms: _25  and  _28
REMARK   16  A    between atoms: _31  and  _33
REMARK   17  A    between atoms: _33  and  _34
REMARK   18  A    between atoms: _33  and  _36
REMARK   19  A    between atoms: _36  and  _37
REMARK   20  A    between atoms: _40  and  _42
REMARK   21  A    between atoms: _42  and  _43
REMARK   22  A    between atoms: _42  and  _45
REMARK   23  A    between atoms: _45  and  _46
REMARK   24  A    between atoms: _51  and  _52
REMARK   25  A    between atoms: _54  and  _56
REMARK   26  A    between atoms: _56  and  _57
REMARK   27  A    between atoms: _56  and  _59
REMARK   28  A    between atoms: _59  and  _60
REMARK   29  A    between atoms: _65  and  _67
REMARK   30  A    between atoms: _67  and  _68
REMARK   31  A    between atoms: _67  and  _70
REMARK   32  A    between atoms: _70  and  _71
REMARK   33  A    between atoms: _74  and  _76
REMARK   34  A    between atoms: _76  and  _77
REMARK   35  A    between atoms: _79  and  _81
REMARK   36  A    between atoms: _81  and  _82
REMARK   37  A    between atoms: _81  and  _84
REMARK   38  A    between atoms: _84  and  _85
REMARK   39  A    between atoms: _85  and  _86
REMARK   40  A    between atoms: _91  and  _93
REMARK   41  A    between atoms: _93  and  _94
REMARK   42  A    between atoms: _93  and  _96
REMARK   43  A    between atoms: _96  and  _97
REMARK   44  A    between atoms: _102  and  _103
REMARK   45  A    between atoms: _105  and  _107
REMARK   46  A    between atoms: _107  and  _108
REMARK   47  A    between atoms: _107  and  _110
REMARK   48  A    between atoms: _110  and  _111
REMARK   49  A    between atoms: _114  and  _116
REMARK   50  A    between atoms: _116  and  _117
REMARK   51  A    between atoms: _116  and  _119
REMARK   52  A    between atoms: _119  and  _120
REMARK   53  A    between atoms: _120  and  _121
REMARK   54  A    between atoms: _123  and  _125
REMARK   55  A    between atoms: _125  and  _126
REMARK   56  A    between atoms: _125  and  _128
REMARK   57  A    between atoms: _128  and  _129
REMARK   58  A    between atoms: _134  and  _135
REMARK   59  A    between atoms: _137  and  _139
REMARK   60  A    between atoms: _139  and  _140
REMARK   61  A    between atoms: _139  and  _142
REMARK   62  A    between atoms: _142  and  _143
REMARK   63  A    between atoms: _143  and  _144
REMARK   64  A    between atoms: _149  and  _151
REMARK   65  A    between atoms: _151  and  _152
REMARK   66  A    between atoms: _151  and  _154
REMARK   67  A    between atoms: _154  and  _155
REMARK   68  A    between atoms: _160  and  _162
REMARK   69  A    between atoms: _162  and  _163
REMARK   70  A    between atoms: _162  and  _165
REMARK   71  A    between atoms: _168  and  _170
REMARK   72  A    between atoms: _170  and  _171
REMARK   73  A    between atoms: _170  and  _173
REMARK   74  A    between atoms: _173  and  _174
REMARK   75  A    between atoms: _177  and  _179
REMARK   76  A    between atoms: _179  and  _180
REMARK   77  A    between atoms: _179  and  _182
REMARK   78  A    between atoms: _182  and  _183
REMARK   79  A    between atoms: _189  and  _191
REMARK   80  A    between atoms: _191  and  _192
REMARK   81  A    between atoms: _191  and  _194
REMARK   82  A    between atoms: _194  and  _195
REMARK   83  A    between atoms: _201  and  _203
REMARK   84  A    between atoms: _203  and  _204
REMARK   85  A    between atoms: _203  and  _206
REMARK   86  A    between atoms: _206  and  _207
REMARK   87  A    between atoms: _209  and  _211
REMARK   88  A    between atoms: _211  and  _212
REMARK   89  A    between atoms: _211  and  _214
REMARK   90  A    between atoms: _217  and  _219
REMARK   91  A    between atoms: _219  and  _220
REMARK   92  A    between atoms: _219  and  _222
REMARK   93  A    between atoms: _222  and  _223
REMARK   94  A    between atoms: _223  and  _224
REMARK   95  A    between atoms: _224  and  _225
REMARK   96  A    between atoms: _225  and  _226
REMARK   97  A    between atoms: _230  and  _232
REMARK   98  A    between atoms: _232  and  _233
REMARK   99  A    between atoms: _232  and  _235
REMARK  100  A    between atoms: _235  and  _236
REMARK  101  A    between atoms: _236  and  _237
REMARK  102  A    between atoms: _240  and  _242
REMARK  103  A    between atoms: _242  and  _243
REMARK  104  A    between atoms: _242  and  _245
REMARK  105  A    between atoms: _245  and  _246
REMARK  106  A    between atoms: _251  and  _253
REMARK  107  A    between atoms: _253  and  _254
REMARK  108  A    between atoms: _253  and  _256
REMARK  109  A    between atoms: _256  and  _257
REMARK  110  A    between atoms: _257  and  _258
REMARK  111  A    between atoms: _258  and  _259
REMARK  112  A    between atoms: _268  and  _270
REMARK  113  A    between atoms: _270  and  _271
REMARK  114  A    between atoms: _270  and  _273
REMARK  115  A    between atoms: _273  and  _274
REMARK  116  A    between atoms: _274  and  _275
REMARK  117  A    between atoms: _275  and  _276
REMARK  118  A    between atoms: _285  and  _287
REMARK  119  A    between atoms: _287  and  _288
REMARK  120  A    between atoms: _287  and  _290
REMARK  121  A    between atoms: _290  and  _291
REMARK  122  A    between atoms: _294  and  _296
REMARK  123  A    between atoms: _296  and  _297
REMARK  124  A    between atoms: _296  and  _299
REMARK  125  A    between atoms: _299  and  _300
REMARK  126  A    between atoms: _305  and  _306
REMARK  127  A    between atoms: _308  and  _310
REMARK  128  A    between atoms: _310  and  _311
REMARK  129  A    between atoms: _314  and  _316
REMARK  130  A    between atoms: _316  and  _317
REMARK  131  A    between atoms: _316  and  _319
REMARK  132  A    between atoms: _319  and  _320
REMARK  133  A    between atoms: _320  and  _321
REMARK  134  A    between atoms: _323  and  _325
REMARK  135  A    between atoms: _325  and  _326
REMARK  136  A    between atoms: _325  and  _328
REMARK  137  A    between atoms: _328  and  _329
REMARK                            x       y       z     vdW  Elec       q    Type
REMARK                         _______ _______ _______ _____ _____    ______ ____
ROOT
ATOM      1  O   HOH     1     -11.796  -4.609  -0.560  0.00  0.00    +0.000 OA
ENDROOT
TORSDOF 0
REMARK  Name = ../refined-set-2016/4j74/4j74_pocket.pdb
REMARK  137 active torsions:
REMARK  status: ('A' for Active; 'I' for Inactive)
REMARK    1  A    between atoms: _1  and  _3
REMARK    2  A    between atoms: _3  and  _4
REMARK    3  A    between atoms: _3  and  _6
REMARK    4  A    between atoms: _6  and  _7
REMARK    5  A    between atoms: _7  and  _8
REMARK    6  A    between atoms: _10  and  _12
REMARK    7  A    between atoms: _12  and  _13
REMARK    8  A    between atoms: _12  and  _15
REMARK    9  A    between atoms: _15  and  _16
REMARK   10  A    between atoms: _16  and  _17
REMARK   11  A    between atoms: _17  and  _18
REMARK   12  A    between atoms: _18  and  _19
REMARK   13  A    between atoms: _23  and  _25
REMARK   14  A    between atoms: _25  and  _26
REMARK   15  A    between atoms: _25  and  _28
REMARK   16  A    between atoms: _31  and  _33
REMARK   17  A    between atoms: _33  and  _34
REMARK   18  A    between atoms: _33  and  _36
REMARK   19  A    between atoms: _36  and  _37
REMARK   20  A    between atoms: _40  and  _42
REMARK   21  A    between atoms: _42  and  _43
REMARK   22  A    between atoms: _42  and  _45
REMARK   23  A    between atoms: _45  and  _46
REMARK   24  A    between atoms: _51  and  _52
REMARK   25  A    between atoms: _54  and  _56
REMARK   26  A    between atoms: _56  and  _57
REMARK   27  A    between atoms: _56  and  _59
REMARK   28  A    between atoms: _59  and  _60
REMARK   29  A    between atoms: _65  and  _67
REMARK   30  A    between atoms: _67  and  _68
REMARK   31  A    between atoms: _67  and  _70
REMARK   32  A    between atoms: _70  and  _71
REMARK   33  A    between atoms: _74  and  _76
REMARK   34  A    between atoms: _76  and  _77
REMARK   35  A    between atoms: _79  and  _81
REMARK   36  A    between atoms: _81  and  _82
REMARK   37  A    between atoms: _81  and  _84
REMARK   38  A    between atoms: _84  and  _85
REMARK   39  A    between atoms: _85  and  _86
REMARK   40  A    between atoms: _91  and  _93
REMARK   41  A    between atoms: _93  and  _94
REMARK   42  A    between atoms: _93  and  _96
REMARK   43  A    between atoms: _96  and  _97
REMARK   44  A    between atoms: _102  and  _103
REMARK   45  A    between atoms: _105  and  _107
REMARK   46  A    between atoms: _107  and  _108
REMARK   47  A    between atoms: _107  and  _110
REMARK   48  A    between atoms: _110  and  _111
REMARK   49  A    between atoms: _114  and  _116
REMARK   50  A    between atoms: _116  and  _117
REMARK   51  A    between atoms: _116  and  _119
REMARK   52  A    between atoms: _119  and  _120
REMARK   53  A    between atoms: _120  and  _121
REMARK   54  A    between atoms: _123  and  _125
REMARK   55  A    between atoms: _125  and  _126
REMARK   56  A    between atoms: _125  and  _128
REMARK   57  A    between atoms: _128  and  _129
REMARK   58  A    between atoms: _134  and  _135
REMARK   59  A    between atoms: _137  and  _139
REMARK   60  A    between atoms: _139  and  _140
REMARK   61  A    between atoms: _139  and  _142
REMARK   62  A    between atoms: _142  and  _143
REMARK   63  A    between atoms: _143  and  _144
REMARK   64  A    between atoms: _149  and  _151
REMARK   65  A    between atoms: _151  and  _152
REMARK   66  A    between atoms: _151  and  _154
REMARK   67  A    between atoms: _154  and  _155
REMARK   68  A    between atoms: _160  and  _162
REMARK   69  A    between atoms: _162  and  _163
REMARK   70  A    between atoms: _162  and  _165
REMARK   71  A    between atoms: _168  and  _170
REMARK   72  A    between atoms: _170  and  _171
REMARK   73  A    between atoms: _170  and  _173
REMARK   74  A    between atoms: _173  and  _174
REMARK   75  A    between atoms: _177  and  _179
REMARK   76  A    between atoms: _179  and  _180
REMARK   77  A    between atoms: _179  and  _182
REMARK   78  A    between atoms: _182  and  _183
REMARK   79  A    between atoms: _189  and  _191
REMARK   80  A    between atoms: _191  and  _192
REMARK   81  A    between atoms: _191  and  _194
REMARK   82  A    between atoms: _194  and  _195
REMARK   83  A    between atoms: _201  and  _203
REMARK   84  A    between atoms: _203  and  _204
REMARK   85  A    between atoms: _203  and  _206
REMARK   86  A    between atoms: _206  and  _207
REMARK   87  A    between atoms: _209  and  _211
REMARK   88  A    between atoms: _211  and  _212
REMARK   89  A    between atoms: _211  and  _214
REMARK   90  A    between atoms: _217  and  _219
REMARK   91  A    between atoms: _219  and  _220
REMARK   92  A    between atoms: _219  and  _222
REMARK   93  A    between atoms: _222  and  _223
REMARK   94  A    between atoms: _223  and  _224
REMARK   95  A    between atoms: _224  and  _225
REMARK   96  A    between atoms: _225  and  _226
REMARK   97  A    between atoms: _230  and  _232
REMARK   98  A    between atoms: _232  and  _233
REMARK   99  A    between atoms: _232  and  _235
REMARK  100  A    between atoms: _235  and  _236
REMARK  101  A    between atoms: _236  and  _237
REMARK  102  A    between atoms: _240  and  _242
REMARK  103  A    between atoms: _242  and  _243
REMARK  104  A    between atoms: _242  and  _245
REMARK  105  A    between atoms: _245  and  _246
REMARK  106  A    between atoms: _251  and  _253
REMARK  107  A    between atoms: _253  and  _254
REMARK  108  A    between atoms: _253  and  _256
REMARK  109  A    between atoms: _256  and  _257
REMARK  110  A    between atoms: _257  and  _258
REMARK  111  A    between atoms: _258  and  _259
REMARK  112  A    between atoms: _268  and  _270
REMARK  113  A    between atoms: _270  and  _271
REMARK  114  A    between atoms: _270  and  _273
REMARK  115  A    between atoms: _273  and  _274
REMARK  116  A    between atoms: _274  and  _275
REMARK  117  A    between atoms: _275  and  _276
REMARK  118  A    between atoms: _285  and  _287
REMARK  119  A    between atoms: _287  and  _288
REMARK  120  A    between atoms: _287  and  _290
REMARK  121  A    between atoms: _290  and  _291
REMARK  122  A    between atoms: _294  and  _296
REMARK  123  A    between atoms: _296  and  _297
REMARK  124  A    between atoms: _296  and  _299
REMARK  125  A    between atoms: _299  and  _300
REMARK  126  A    between atoms: _305  and  _306
REMARK  127  A    between atoms: _308  and  _310
REMARK  128  A    between atoms: _310  and  _311
REMARK  129  A    between atoms: _314  and  _316
REMARK  130  A    between atoms: _316  and  _317
REMARK  131  A    between atoms: _316  and  _319
REMARK  132  A    between atoms: _319  and  _320
REMARK  133  A    between atoms: _320  and  _321
REMARK  134  A    between atoms: _323  and  _325
REMARK  135  A    between atoms: _325  and  _326
REMARK  136  A    between atoms: _325  and  _328
REMARK  137  A    between atoms: _328  and  _329
REMARK                            x       y       z     vdW  Elec       q    Type
REMARK                         _______ _______ _______ _____ _____    ______ ____
ROOT
ATOM      1  O   HOH     1     -13.549  -7.232   5.307  0.00  0.00    +0.000 OA
ENDROOT
TORSDOF 0
REMARK  Name = ../refined-set-2016/4j74/4j74_pocket.pdb
REMARK  137 active torsions:
REMARK  status: ('A' for Active; 'I' for Inactive)
REMARK    1  A    between atoms: _1  and  _3
REMARK    2  A    between atoms: _3  and  _4
REMARK    3  A    between atoms: _3  and  _6
REMARK    4  A    between atoms: _6  and  _7
REMARK    5  A    between atoms: _7  and  _8
REMARK    6  A    between atoms: _10  and  _12
REMARK    7  A    between atoms: _12  and  _13
REMARK    8  A    between atoms: _12  and  _15
REMARK    9  A    between atoms: _15  and  _16
REMARK   10  A    between atoms: _16  and  _17
REMARK   11  A    between atoms: _17  and  _18
REMARK   12  A    between atoms: _18  and  _19
REMARK   13  A    between atoms: _23  and  _25
REMARK   14  A    between atoms: _25  and  _26
REMARK   15  A    between atoms: _25  and  _28
REMARK   16  A    between atoms: _31  and  _33
REMARK   17  A    between atoms: _33  and  _34
REMARK   18  A    between atoms: _33  and  _36
REMARK   19  A    between atoms: _36  and  _37
REMARK   20  A    between atoms: _40  and  _42
REMARK   21  A    between atoms: _42  and  _43
REMARK   22  A    between atoms: _42  and  _45
REMARK   23  A    between atoms: _45  and  _46
REMARK   24  A    between atoms: _51  and  _52
REMARK   25  A    between atoms: _54  and  _56
REMARK   26  A    between atoms: _56  and  _57
REMARK   27  A    between atoms: _56  and  _59
REMARK   28  A    between atoms: _59  and  _60
REMARK   29  A    between atoms: _65  and  _67
REMARK   30  A    between atoms: _67  and  _68
REMARK   31  A    between atoms: _67  and  _70
REMARK   32  A    between atoms: _70  and  _71
REMARK   33  A    between atoms: _74  and  _76
REMARK   34  A    between atoms: _76  and  _77
REMARK   35  A    between atoms: _79  and  _81
REMARK   36  A    between atoms: _81  and  _82
REMARK   37  A    between atoms: _81  and  _84
REMARK   38  A    between atoms: _84  and  _85
REMARK   39  A    between atoms: _85  and  _86
REMARK   40  A    between atoms: _91  and  _93
REMARK   41  A    between atoms: _93  and  _94
REMARK   42  A    between atoms: _93  and  _96
REMARK   43  A    between atoms: _96  and  _97
REMARK   44  A    between atoms: _102  and  _103
REMARK   45  A    between atoms: _105  and  _107
REMARK   46  A    between atoms: _107  and  _108
REMARK   47  A    between atoms: _107  and  _110
REMARK   48  A    between atoms: _110  and  _111
REMARK   49  A    between atoms: _114  and  _116
REMARK   50  A    between atoms: _116  and  _117
REMARK   51  A    between atoms: _116  and  _119
REMARK   52  A    between atoms: _119  and  _120
REMARK   53  A    between atoms: _120  and  _121
REMARK   54  A    between atoms: _123  and  _125
REMARK   55  A    between atoms: _125  and  _126
REMARK   56  A    between atoms: _125  and  _128
REMARK   57  A    between atoms: _128  and  _129
REMARK   58  A    between atoms: _134  and  _135
REMARK   59  A    between atoms: _137  and  _139
REMARK   60  A    between atoms: _139  and  _140
REMARK   61  A    between atoms: _139  and  _142
REMARK   62  A    between atoms: _142  and  _143
REMARK   63  A    between atoms: _143  and  _144
REMARK   64  A    between atoms: _149  and  _151
REMARK   65  A    between atoms: _151  and  _152
REMARK   66  A    between atoms: _151  and  _154
REMARK   67  A    between atoms: _154  and  _155
REMARK   68  A    between atoms: _160  and  _162
REMARK   69  A    between atoms: _162  and  _163
REMARK   70  A    between atoms: _162  and  _165
REMARK   71  A    between atoms: _168  and  _170
REMARK   72  A    between atoms: _170  and  _171
REMARK   73  A    between atoms: _170  and  _173
REMARK   74  A    between atoms: _173  and  _174
REMARK   75  A    between atoms: _177  and  _179
REMARK   76  A    between atoms: _179  and  _180
REMARK   77  A    between atoms: _179  and  _182
REMARK   78  A    between atoms: _182  and  _183
REMARK   79  A    between atoms: _189  and  _191
REMARK   80  A    between atoms: _191  and  _192
REMARK   81  A    between atoms: _191  and  _194
REMARK   82  A    between atoms: _194  and  _195
REMARK   83  A    between atoms: _201  and  _203
REMARK   84  A    between atoms: _203  and  _204
REMARK   85  A    between atoms: _203  and  _206
REMARK   86  A    between atoms: _206  and  _207
REMARK   87  A    between atoms: _209  and  _211
REMARK   88  A    between atoms: _211  and  _212
REMARK   89  A    between atoms: _211  and  _214
REMARK   90  A    between atoms: _217  and  _219
REMARK   91  A    between atoms: _219  and  _220
REMARK   92  A    between atoms: _219  and  _222
REMARK   93  A    between atoms: _222  and  _223
REMARK   94  A    between atoms: _223  and  _224
REMARK   95  A    between atoms: _224  and  _225
REMARK   96  A    between atoms: _225  and  _226
REMARK   97  A    between atoms: _230  and  _232
REMARK   98  A    between atoms: _232  and  _233
REMARK   99  A    between atoms: _232  and  _235
REMARK  100  A    between atoms: _235  and  _236
REMARK  101  A    between atoms: _236  and  _237
REMARK  102  A    between atoms: _240  and  _242
REMARK  103  A    between atoms: _242  and  _243
REMARK  104  A    between atoms: _242  and  _245
REMARK  105  A    between atoms: _245  and  _246
REMARK  106  A    between atoms: _251  and  _253
REMARK  107  A    between atoms: _253  and  _254
REMARK  108  A    between atoms: _253  and  _256
REMARK  109  A    between atoms: _256  and  _257
REMARK  110  A    between atoms: _257  and  _258
REMARK  111  A    between atoms: _258  and  _259
REMARK  112  A    between atoms: _268  and  _270
REMARK  113  A    between atoms: _270  and  _271
REMARK  114  A    between atoms: _270  and  _273
REMARK  115  A    between atoms: _273  and  _274
REMARK  116  A    between atoms: _274  and  _275
REMARK  117  A    between atoms: _275  and  _276
REMARK  118  A    between atoms: _285  and  _287
REMARK  119  A    between atoms: _287  and  _288
REMARK  120  A    between atoms: _287  and  _290
REMARK  121  A    between atoms: _290  and  _291
REMARK  122  A    between atoms: _294  and  _296
REMARK  123  A    between atoms: _296  and  _297
REMARK  124  A    between atoms: _296  and  _299
REMARK  125  A    between atoms: _299  and  _300
REMARK  126  A    between atoms: _305  and  _306
REMARK  127  A    between atoms: _308  and  _310
REMARK  128  A    between atoms: _310  and  _311
REMARK  129  A    between atoms: _314  and  _316
REMARK  130  A    between atoms: _316  and  _317
REMARK  131  A    between atoms: _316  and  _319
REMARK  132  A    between atoms: _319  and  _320
REMARK  133  A    between atoms: _320  and  _321
REMARK  134  A    between atoms: _323  and  _325
REMARK  135  A    between atoms: _325  and  _326
REMARK  136  A    between atoms: _325  and  _328
REMARK  137  A    between atoms: _328  and  _329
REMARK                            x       y       z     vdW  Elec       q    Type
REMARK                         _______ _______ _______ _____ _____    ______ ____
ROOT
ATOM      1  O   HOH     1      -5.728  -6.415  -0.088  0.00  0.00    +0.000 OA
ENDROOT
TORSDOF 0
REMARK  Name = ../refined-set-2016/4j74/4j74_pocket.pdb
REMARK  137 active torsions:
REMARK  status: ('A' for Active; 'I' for Inactive)
REMARK    1  A    between atoms: _1  and  _3
REMARK    2  A    between atoms: _3  and  _4
REMARK    3  A    between atoms: _3  and  _6
REMARK    4  A    between atoms: _6  and  _7
REMARK    5  A    between atoms: _7  and  _8
REMARK    6  A    between atoms: _10  and  _12
REMARK    7  A    between atoms: _12  and  _13
REMARK    8  A    between atoms: _12  and  _15
REMARK    9  A    between atoms: _15  and  _16
REMARK   10  A    between atoms: _16  and  _17
REMARK   11  A    between atoms: _17  and  _18
REMARK   12  A    between atoms: _18  and  _19
REMARK   13  A    between atoms: _23  and  _25
REMARK   14  A    between atoms: _25  and  _26
REMARK   15  A    between atoms: _25  and  _28
REMARK   16  A    between atoms: _31  and  _33
REMARK   17  A    between atoms: _33  and  _34
REMARK   18  A    between atoms: _33  and  _36
REMARK   19  A    between atoms: _36  and  _37
REMARK   20  A    between atoms: _40  and  _42
REMARK   21  A    between atoms: _42  and  _43
REMARK   22  A    between atoms: _42  and  _45
REMARK   23  A    between atoms: _45  and  _46
REMARK   24  A    between atoms: _51  and  _52
REMARK   25  A    between atoms: _54  and  _56
REMARK   26  A    between atoms: _56  and  _57
REMARK   27  A    between atoms: _56  and  _59
REMARK   28  A    between atoms: _59  and  _60
REMARK   29  A    between atoms: _65  and  _67
REMARK   30  A    between atoms: _67  and  _68
REMARK   31  A    between atoms: _67  and  _70
REMARK   32  A    between atoms: _70  and  _71
REMARK   33  A    between atoms: _74  and  _76
REMARK   34  A    between atoms: _76  and  _77
REMARK   35  A    between atoms: _79  and  _81
REMARK   36  A    between atoms: _81  and  _82
REMARK   37  A    between atoms: _81  and  _84
REMARK   38  A    between atoms: _84  and  _85
REMARK   39  A    between atoms: _85  and  _86
REMARK   40  A    between atoms: _91  and  _93
REMARK   41  A    between atoms: _93  and  _94
REMARK   42  A    between atoms: _93  and  _96
REMARK   43  A    between atoms: _96  and  _97
REMARK   44  A    between atoms: _102  and  _103
REMARK   45  A    between atoms: _105  and  _107
REMARK   46  A    between atoms: _107  and  _108
REMARK   47  A    between atoms: _107  and  _110
REMARK   48  A    between atoms: _110  and  _111
REMARK   49  A    between atoms: _114  and  _116
REMARK   50  A    between atoms: _116  and  _117
REMARK   51  A    between atoms: _116  and  _119
REMARK   52  A    between atoms: _119  and  _120
REMARK   53  A    between atoms: _120  and  _121
REMARK   54  A    between atoms: _123  and  _125
REMARK   55  A    between atoms: _125  and  _126
REMARK   56  A    between atoms: _125  and  _128
REMARK   57  A    between atoms: _128  and  _129
REMARK   58  A    between atoms: _134  and  _135
REMARK   59  A    between atoms: _137  and  _139
REMARK   60  A    between atoms: _139  and  _140
REMARK   61  A    between atoms: _139  and  _142
REMARK   62  A    between atoms: _142  and  _143
REMARK   63  A    between atoms: _143  and  _144
REMARK   64  A    between atoms: _149  and  _151
REMARK   65  A    between atoms: _151  and  _152
REMARK   66  A    between atoms: _151  and  _154
REMARK   67  A    between atoms: _154  and  _155
REMARK   68  A    between atoms: _160  and  _162
REMARK   69  A    between atoms: _162  and  _163
REMARK   70  A    between atoms: _162  and  _165
REMARK   71  A    between atoms: _168  and  _170
REMARK   72  A    between atoms: _170  and  _171
REMARK   73  A    between atoms: _170  and  _173
REMARK   74  A    between atoms: _173  and  _174
REMARK   75  A    between atoms: _177  and  _179
REMARK   76  A    between atoms: _179  and  _180
REMARK   77  A    between atoms: _179  and  _182
REMARK   78  A    between atoms: _182  and  _183
REMARK   79  A    between atoms: _189  and  _191
REMARK   80  A    between atoms: _191  and  _192
REMARK   81  A    between atoms: _191  and  _194
REMARK   82  A    between atoms: _194  and  _195
REMARK   83  A    between atoms: _201  and  _203
REMARK   84  A    between atoms: _203  and  _204
REMARK   85  A    between atoms: _203  and  _206
REMARK   86  A    between atoms: _206  and  _207
REMARK   87  A    between atoms: _209  and  _211
REMARK   88  A    between atoms: _211  and  _212
REMARK   89  A    between atoms: _211  and  _214
REMARK   90  A    between atoms: _217  and  _219
REMARK   91  A    between atoms: _219  and  _220
REMARK   92  A    between atoms: _219  and  _222
REMARK   93  A    between atoms: _222  and  _223
REMARK   94  A    between atoms: _223  and  _224
REMARK   95  A    between atoms: _224  and  _225
REMARK   96  A    between atoms: _225  and  _226
REMARK   97  A    between atoms: _230  and  _232
REMARK   98  A    between atoms: _232  and  _233
REMARK   99  A    between atoms: _232  and  _235
REMARK  100  A    between atoms: _235  and  _236
REMARK  101  A    between atoms: _236  and  _237
REMARK  102  A    between atoms: _240  and  _242
REMARK  103  A    between atoms: _242  and  _243
REMARK  104  A    between atoms: _242  and  _245
REMARK  105  A    between atoms: _245  and  _246
REMARK  106  A    between atoms: _251  and  _253
REMARK  107  A    between atoms: _253  and  _254
REMARK  108  A    between atoms: _253  and  _256
REMARK  109  A    between atoms: _256  and  _257
REMARK  110  A    between atoms: _257  and  _258
REMARK  111  A    between atoms: _258  and  _259
REMARK  112  A    between atoms: _268  and  _270
REMARK  113  A    between atoms: _270  and  _271
REMARK  114  A    between atoms: _270  and  _273
REMARK  115  A    between atoms: _273  and  _274
REMARK  116  A    between atoms: _274  and  _275
REMARK  117  A    between atoms: _275  and  _276
REMARK  118  A    between atoms: _285  and  _287
REMARK  119  A    between atoms: _287  and  _288
REMARK  120  A    between atoms: _287  and  _290
REMARK  121  A    between atoms: _290  and  _291
REMARK  122  A    between atoms: _294  and  _296
REMARK  123  A    between atoms: _296  and  _297
REMARK  124  A    between atoms: _296  and  _299
REMARK  125  A    between atoms: _299  and  _300
REMARK  126  A    between atoms: _305  and  _306
REMARK  127  A    between atoms: _308  and  _310
REMARK  128  A    between atoms: _310  and  _311
REMARK  129  A    between atoms: _314  and  _316
REMARK  130  A    between atoms: _316  and  _317
REMARK  131  A    between atoms: _316  and  _319
REMARK  132  A    between atoms: _319  and  _320
REMARK  133  A    between atoms: _320  and  _321
REMARK  134  A    between atoms: _323  and  _325
REMARK  135  A    between atoms: _325  and  _326
REMARK  136  A    between atoms: _325  and  _328
REMARK  137  A    between atoms: _328  and  _329
REMARK                            x       y       z     vdW  Elec       q    Type
REMARK                         _______ _______ _______ _____ _____    ______ ____
ROOT
ATOM      1  O   HOH     1      -7.080  -8.751  -0.971  0.00  0.00    +0.000 OA
ENDROOT
TORSDOF 0
REMARK  Name = ../refined-set-2016/4j74/4j74_pocket.pdb
REMARK  137 active torsions:
REMARK  status: ('A' for Active; 'I' for Inactive)
REMARK    1  A    between atoms: _1  and  _3
REMARK    2  A    between atoms: _3  and  _4
REMARK    3  A    between atoms: _3  and  _6
REMARK    4  A    between atoms: _6  and  _7
REMARK    5  A    between atoms: _7  and  _8
REMARK    6  A    between atoms: _10  and  _12
REMARK    7  A    between atoms: _12  and  _13
REMARK    8  A    between atoms: _12  and  _15
REMARK    9  A    between atoms: _15  and  _16
REMARK   10  A    between atoms: _16  and  _17
REMARK   11  A    between atoms: _17  and  _18
REMARK   12  A    between atoms: _18  and  _19
REMARK   13  A    between atoms: _23  and  _25
REMARK   14  A    between atoms: _25  and  _26
REMARK   15  A    between atoms: _25  and  _28
REMARK   16  A    between atoms: _31  and  _33
REMARK   17  A    between atoms: _33  and  _34
REMARK   18  A    between atoms: _33  and  _36
REMARK   19  A    between atoms: _36  and  _37
REMARK   20  A    between atoms: _40  and  _42
REMARK   21  A    between atoms: _42  and  _43
REMARK   22  A    between atoms: _42  and  _45
REMARK   23  A    between atoms: _45  and  _46
REMARK   24  A    between atoms: _51  and  _52
REMARK   25  A    between atoms: _54  and  _56
REMARK   26  A    between atoms: _56  and  _57
REMARK   27  A    between atoms: _56  and  _59
REMARK   28  A    between atoms: _59  and  _60
REMARK   29  A    between atoms: _65  and  _67
REMARK   30  A    between atoms: _67  and  _68
REMARK   31  A    between atoms: _67  and  _70
REMARK   32  A    between atoms: _70  and  _71
REMARK   33  A    between atoms: _74  and  _76
REMARK   34  A    between atoms: _76  and  _77
REMARK   35  A    between atoms: _79  and  _81
REMARK   36  A    between atoms: _81  and  _82
REMARK   37  A    between atoms: _81  and  _84
REMARK   38  A    between atoms: _84  and  _85
REMARK   39  A    between atoms: _85  and  _86
REMARK   40  A    between atoms: _91  and  _93
REMARK   41  A    between atoms: _93  and  _94
REMARK   42  A    between atoms: _93  and  _96
REMARK   43  A    between atoms: _96  and  _97
REMARK   44  A    between atoms: _102  and  _103
REMARK   45  A    between atoms: _105  and  _107
REMARK   46  A    between atoms: _107  and  _108
REMARK   47  A    between atoms: _107  and  _110
REMARK   48  A    between atoms: _110  and  _111
REMARK   49  A    between atoms: _114  and  _116
REMARK   50  A    between atoms: _116  and  _117
REMARK   51  A    between atoms: _116  and  _119
REMARK   52  A    between atoms: _119  and  _120
REMARK   53  A    between atoms: _120  and  _121
REMARK   54  A    between atoms: _123  and  _125
REMARK   55  A    between atoms: _125  and  _126
REMARK   56  A    between atoms: _125  and  _128
REMARK   57  A    between atoms: _128  and  _129
REMARK   58  A    between atoms: _134  and  _135
REMARK   59  A    between atoms: _137  and  _139
REMARK   60  A    between atoms: _139  and  _140
REMARK   61  A    between atoms: _139  and  _142
REMARK   62  A    between atoms: _142  and  _143
REMARK   63  A    between atoms: _143  and  _144
REMARK   64  A    between atoms: _149  and  _151
REMARK   65  A    between atoms: _151  and  _152
REMARK   66  A    between atoms: _151  and  _154
REMARK   67  A    between atoms: _154  and  _155
REMARK   68  A    between atoms: _160  and  _162
REMARK   69  A    between atoms: _162  and  _163
REMARK   70  A    between atoms: _162  and  _165
REMARK   71  A    between atoms: _168  and  _170
REMARK   72  A    between atoms: _170  and  _171
REMARK   73  A    between atoms: _170  and  _173
REMARK   74  A    between atoms: _173  and  _174
REMARK   75  A    between atoms: _177  and  _179
REMARK   76  A    between atoms: _179  and  _180
REMARK   77  A    between atoms: _179  and  _182
REMARK   78  A    between atoms: _182  and  _183
REMARK   79  A    between atoms: _189  and  _191
REMARK   80  A    between atoms: _191  and  _192
REMARK   81  A    between atoms: _191  and  _194
REMARK   82  A    between atoms: _194  and  _195
REMARK   83  A    between atoms: _201  and  _203
REMARK   84  A    between atoms: _203  and  _204
REMARK   85  A    between atoms: _203  and  _206
REMARK   86  A    between atoms: _206  and  _207
REMARK   87  A    between atoms: _209  and  _211
REMARK   88  A    between atoms: _211  and  _212
REMARK   89  A    between atoms: _211  and  _214
REMARK   90  A    between atoms: _217  and  _219
REMARK   91  A    between atoms: _219  and  _220
REMARK   92  A    between atoms: _219  and  _222
REMARK   93  A    between atoms: _222  and  _223
REMARK   94  A    between atoms: _223  and  _224
REMARK   95  A    between atoms: _224  and  _225
REMARK   96  A    between atoms: _225  and  _226
REMARK   97  A    between atoms: _230  and  _232
REMARK   98  A    between atoms: _232  and  _233
REMARK   99  A    between atoms: _232  and  _235
REMARK  100  A    between atoms: _235  and  _236
REMARK  101  A    between atoms: _236  and  _237
REMARK  102  A    between atoms: _240  and  _242
REMARK  103  A    between atoms: _242  and  _243
REMARK  104  A    between atoms: _242  and  _245
REMARK  105  A    between atoms: _245  and  _246
REMARK  106  A    between atoms: _251  and  _253
REMARK  107  A    between atoms: _253  and  _254
REMARK  108  A    between atoms: _253  and  _256
REMARK  109  A    between atoms: _256  and  _257
REMARK  110  A    between atoms: _257  and  _258
REMARK  111  A    between atoms: _258  and  _259
REMARK  112  A    between atoms: _268  and  _270
REMARK  113  A    between atoms: _270  and  _271
REMARK  114  A    between atoms: _270  and  _273
REMARK  115  A    between atoms: _273  and  _274
REMARK  116  A    between atoms: _274  and  _275
REMARK  117  A    between atoms: _275  and  _276
REMARK  118  A    between atoms: _285  and  _287
REMARK  119  A    between atoms: _287  and  _288
REMARK  120  A    between atoms: _287  and  _290
REMARK  121  A    between atoms: _290  and  _291
REMARK  122  A    between atoms: _294  and  _296
REMARK  123  A    between atoms: _296  and  _297
REMARK  124  A    between atoms: _296  and  _299
REMARK  125  A    between atoms: _299  and  _300
REMARK  126  A    between atoms: _305  and  _306
REMARK  127  A    between atoms: _308  and  _310
REMARK  128  A    between atoms: _310  and  _311
REMARK  129  A    between atoms: _314  and  _316
REMARK  130  A    between atoms: _316  and  _317
REMARK  131  A    between atoms: _316  and  _319
REMARK  132  A    between atoms: _319  and  _320
REMARK  133  A    between atoms: _320  and  _321
REMARK  134  A    between atoms: _323  and  _325
REMARK  135  A    between atoms: _325  and  _326
REMARK  136  A    between atoms: _325  and  _328
REMARK  137  A    between atoms: _328  and  _329
REMARK                            x       y       z     vdW  Elec       q    Type
REMARK                         _______ _______ _______ _____ _____    ______ ____
ROOT
ATOM      1  O   HOH     1      -6.350 -11.289   0.140  0.00  0.00    +0.000 OA
ENDROOT
TORSDOF 0
REMARK  Name = ../refined-set-2016/4j74/4j74_pocket.pdb
REMARK  137 active torsions:
REMARK  status: ('A' for Active; 'I' for Inactive)
REMARK    1  A    between atoms: _1  and  _3
REMARK    2  A    between atoms: _3  and  _4
REMARK    3  A    between atoms: _3  and  _6
REMARK    4  A    between atoms: _6  and  _7
REMARK    5  A    between atoms: _7  and  _8
REMARK    6  A    between atoms: _10  and  _12
REMARK    7  A    between atoms: _12  and  _13
REMARK    8  A    between atoms: _12  and  _15
REMARK    9  A    between atoms: _15  and  _16
REMARK   10  A    between atoms: _16  and  _17
REMARK   11  A    between atoms: _17  and  _18
REMARK   12  A    between atoms: _18  and  _19
REMARK   13  A    between atoms: _23  and  _25
REMARK   14  A    between atoms: _25  and  _26
REMARK   15  A    between atoms: _25  and  _28
REMARK   16  A    between atoms: _31  and  _33
REMARK   17  A    between atoms: _33  and  _34
REMARK   18  A    between atoms: _33  and  _36
REMARK   19  A    between atoms: _36  and  _37
REMARK   20  A    between atoms: _40  and  _42
REMARK   21  A    between atoms: _42  and  _43
REMARK   22  A    between atoms: _42  and  _45
REMARK   23  A    between atoms: _45  and  _46
REMARK   24  A    between atoms: _51  and  _52
REMARK   25  A    between atoms: _54  and  _56
REMARK   26  A    between atoms: _56  and  _57
REMARK   27  A    between atoms: _56  and  _59
REMARK   28  A    between atoms: _59  and  _60
REMARK   29  A    between atoms: _65  and  _67
REMARK   30  A    between atoms: _67  and  _68
REMARK   31  A    between atoms: _67  and  _70
REMARK   32  A    between atoms: _70  and  _71
REMARK   33  A    between atoms: _74  and  _76
REMARK   34  A    between atoms: _76  and  _77
REMARK   35  A    between atoms: _79  and  _81
REMARK   36  A    between atoms: _81  and  _82
REMARK   37  A    between atoms: _81  and  _84
REMARK   38  A    between atoms: _84  and  _85
REMARK   39  A    between atoms: _85  and  _86
REMARK   40  A    between atoms: _91  and  _93
REMARK   41  A    between atoms: _93  and  _94
REMARK   42  A    between atoms: _93  and  _96
REMARK   43  A    between atoms: _96  and  _97
REMARK   44  A    between atoms: _102  and  _103
REMARK   45  A    between atoms: _105  and  _107
REMARK   46  A    between atoms: _107  and  _108
REMARK   47  A    between atoms: _107  and  _110
REMARK   48  A    between atoms: _110  and  _111
REMARK   49  A    between atoms: _114  and  _116
REMARK   50  A    between atoms: _116  and  _117
REMARK   51  A    between atoms: _116  and  _119
REMARK   52  A    between atoms: _119  and  _120
REMARK   53  A    between atoms: _120  and  _121
REMARK   54  A    between atoms: _123  and  _125
REMARK   55  A    between atoms: _125  and  _126
REMARK   56  A    between atoms: _125  and  _128
REMARK   57  A    between atoms: _128  and  _129
REMARK   58  A    between atoms: _134  and  _135
REMARK   59  A    between atoms: _137  and  _139
REMARK   60  A    between atoms: _139  and  _140
REMARK   61  A    between atoms: _139  and  _142
REMARK   62  A    between atoms: _142  and  _143
REMARK   63  A    between atoms: _143  and  _144
REMARK   64  A    between atoms: _149  and  _151
REMARK   65  A    between atoms: _151  and  _152
REMARK   66  A    between atoms: _151  and  _154
REMARK   67  A    between atoms: _154  and  _155
REMARK   68  A    between atoms: _160  and  _162
REMARK   69  A    between atoms: _162  and  _163
REMARK   70  A    between atoms: _162  and  _165
REMARK   71  A    between atoms: _168  and  _170
REMARK   72  A    between atoms: _170  and  _171
REMARK   73  A    between atoms: _170  and  _173
REMARK   74  A    between atoms: _173  and  _174
REMARK   75  A    between atoms: _177  and  _179
REMARK   76  A    between atoms: _179  and  _180
REMARK   77  A    between atoms: _179  and  _182
REMARK   78  A    between atoms: _182  and  _183
REMARK   79  A    between atoms: _189  and  _191
REMARK   80  A    between atoms: _191  and  _192
REMARK   81  A    between atoms: _191  and  _194
REMARK   82  A    between atoms: _194  and  _195
REMARK   83  A    between atoms: _201  and  _203
REMARK   84  A    between atoms: _203  and  _204
REMARK   85  A    between atoms: _203  and  _206
REMARK   86  A    between atoms: _206  and  _207
REMARK   87  A    between atoms: _209  and  _211
REMARK   88  A    between atoms: _211  and  _212
REMARK   89  A    between atoms: _211  and  _214
REMARK   90  A    between atoms: _217  and  _219
REMARK   91  A    between atoms: _219  and  _220
REMARK   92  A    between atoms: _219  and  _222
REMARK   93  A    between atoms: _222  and  _223
REMARK   94  A    between atoms: _223  and  _224
REMARK   95  A    between atoms: _224  and  _225
REMARK   96  A    between atoms: _225  and  _226
REMARK   97  A    between atoms: _230  and  _232
REMARK   98  A    between atoms: _232  and  _233
REMARK   99  A    between atoms: _232  and  _235
REMARK  100  A    between atoms: _235  and  _236
REMARK  101  A    between atoms: _236  and  _237
REMARK  102  A    between atoms: _240  and  _242
REMARK  103  A    between atoms: _242  and  _243
REMARK  104  A    between atoms: _242  and  _245
REMARK  105  A    between atoms: _245  and  _246
REMARK  106  A    between atoms: _251  and  _253
REMARK  107  A    between atoms: _253  and  _254
REMARK  108  A    between atoms: _253  and  _256
REMARK  109  A    between atoms: _256  and  _257
REMARK  110  A    between atoms: _257  and  _258
REMARK  111  A    between atoms: _258  and  _259
REMARK  112  A    between atoms: _268  and  _270
REMARK  113  A    between atoms: _270  and  _271
REMARK  114  A    between atoms: _270  and  _273
REMARK  115  A    between atoms: _273  and  _274
REMARK  116  A    between atoms: _274  and  _275
REMARK  117  A    between atoms: _275  and  _276
REMARK  118  A    between atoms: _285  and  _287
REMARK  119  A    between atoms: _287  and  _288
REMARK  120  A    between atoms: _287  and  _290
REMARK  121  A    between atoms: _290  and  _291
REMARK  122  A    between atoms: _294  and  _296
REMARK  123  A    between atoms: _296  and  _297
REMARK  124  A    between atoms: _296  and  _299
REMARK  125  A    between atoms: _299  and  _300
REMARK  126  A    between atoms: _305  and  _306
REMARK  127  A    between atoms: _308  and  _310
REMARK  128  A    between atoms: _310  and  _311
REMARK  129  A    between atoms: _314  and  _316
REMARK  130  A    between atoms: _316  and  _317
REMARK  131  A    between atoms: _316  and  _319
REMARK  132  A    between atoms: _319  and  _320
REMARK  133  A    between atoms: _320  and  _321
REMARK  134  A    between atoms: _323  and  _325
REMARK  135  A    between atoms: _325  and  _326
REMARK  136  A    between atoms: _325  and  _328
REMARK  137  A    between atoms: _328  and  _329
REMARK                            x       y       z     vdW  Elec       q    Type
REMARK                         _______ _______ _______ _____ _____    ______ ____
ROOT
ATOM      1  O   HOH     1     -17.328  -8.571   8.226  0.00  0.00    +0.000 OA
ENDROOT
TORSDOF 0
REMARK  Name = ../refined-set-2016/4j74/4j74_pocket.pdb
REMARK  137 active torsions:
REMARK  status: ('A' for Active; 'I' for Inactive)
REMARK    1  A    between atoms: _1  and  _3
REMARK    2  A    between atoms: _3  and  _4
REMARK    3  A    between atoms: _3  and  _6
REMARK    4  A    between atoms: _6  and  _7
REMARK    5  A    between atoms: _7  and  _8
REMARK    6  A    between atoms: _10  and  _12
REMARK    7  A    between atoms: _12  and  _13
REMARK    8  A    between atoms: _12  and  _15
REMARK    9  A    between atoms: _15  and  _16
REMARK   10  A    between atoms: _16  and  _17
REMARK   11  A    between atoms: _17  and  _18
REMARK   12  A    between atoms: _18  and  _19
REMARK   13  A    between atoms: _23  and  _25
REMARK   14  A    between atoms: _25  and  _26
REMARK   15  A    between atoms: _25  and  _28
REMARK   16  A    between atoms: _31  and  _33
REMARK   17  A    between atoms: _33  and  _34
REMARK   18  A    between atoms: _33  and  _36
REMARK   19  A    between atoms: _36  and  _37
REMARK   20  A    between atoms: _40  and  _42
REMARK   21  A    between atoms: _42  and  _43
REMARK   22  A    between atoms: _42  and  _45
REMARK   23  A    between atoms: _45  and  _46
REMARK   24  A    between atoms: _51  and  _52
REMARK   25  A    between atoms: _54  and  _56
REMARK   26  A    between atoms: _56  and  _57
REMARK   27  A    between atoms: _56  and  _59
REMARK   28  A    between atoms: _59  and  _60
REMARK   29  A    between atoms: _65  and  _67
REMARK   30  A    between atoms: _67  and  _68
REMARK   31  A    between atoms: _67  and  _70
REMARK   32  A    between atoms: _70  and  _71
REMARK   33  A    between atoms: _74  and  _76
REMARK   34  A    between atoms: _76  and  _77
REMARK   35  A    between atoms: _79  and  _81
REMARK   36  A    between atoms: _81  and  _82
REMARK   37  A    between atoms: _81  and  _84
REMARK   38  A    between atoms: _84  and  _85
REMARK   39  A    between atoms: _85  and  _86
REMARK   40  A    between atoms: _91  and  _93
REMARK   41  A    between atoms: _93  and  _94
REMARK   42  A    between atoms: _93  and  _96
REMARK   43  A    between atoms: _96  and  _97
REMARK   44  A    between atoms: _102  and  _103
REMARK   45  A    between atoms: _105  and  _107
REMARK   46  A    between atoms: _107  and  _108
REMARK   47  A    between atoms: _107  and  _110
REMARK   48  A    between atoms: _110  and  _111
REMARK   49  A    between atoms: _114  and  _116
REMARK   50  A    between atoms: _116  and  _117
REMARK   51  A    between atoms: _116  and  _119
REMARK   52  A    between atoms: _119  and  _120
REMARK   53  A    between atoms: _120  and  _121
REMARK   54  A    between atoms: _123  and  _125
REMARK   55  A    between atoms: _125  and  _126
REMARK   56  A    between atoms: _125  and  _128
REMARK   57  A    between atoms: _128  and  _129
REMARK   58  A    between atoms: _134  and  _135
REMARK   59  A    between atoms: _137  and  _139
REMARK   60  A    between atoms: _139  and  _140
REMARK   61  A    between atoms: _139  and  _142
REMARK   62  A    between atoms: _142  and  _143
REMARK   63  A    between atoms: _143  and  _144
REMARK   64  A    between atoms: _149  and  _151
REMARK   65  A    between atoms: _151  and  _152
REMARK   66  A    between atoms: _151  and  _154
REMARK   67  A    between atoms: _154  and  _155
REMARK   68  A    between atoms: _160  and  _162
REMARK   69  A    between atoms: _162  and  _163
REMARK   70  A    between atoms: _162  and  _165
REMARK   71  A    between atoms: _168  and  _170
REMARK   72  A    between atoms: _170  and  _171
REMARK   73  A    between atoms: _170  and  _173
REMARK   74  A    between atoms: _173  and  _174
REMARK   75  A    between atoms: _177  and  _179
REMARK   76  A    between atoms: _179  and  _180
REMARK   77  A    between atoms: _179  and  _182
REMARK   78  A    between atoms: _182  and  _183
REMARK   79  A    between atoms: _189  and  _191
REMARK   80  A    between atoms: _191  and  _192
REMARK   81  A    between atoms: _191  and  _194
REMARK   82  A    between atoms: _194  and  _195
REMARK   83  A    between atoms: _201  and  _203
REMARK   84  A    between atoms: _203  and  _204
REMARK   85  A    between atoms: _203  and  _206
REMARK   86  A    between atoms: _206  and  _207
REMARK   87  A    between atoms: _209  and  _211
REMARK   88  A    between atoms: _211  and  _212
REMARK   89  A    between atoms: _211  and  _214
REMARK   90  A    between atoms: _217  and  _219
REMARK   91  A    between atoms: _219  and  _220
REMARK   92  A    between atoms: _219  and  _222
REMARK   93  A    between atoms: _222  and  _223
REMARK   94  A    between atoms: _223  and  _224
REMARK   95  A    between atoms: _224  and  _225
REMARK   96  A    between atoms: _225  and  _226
REMARK   97  A    between atoms: _230  and  _232
REMARK   98  A    between atoms: _232  and  _233
REMARK   99  A    between atoms: _232  and  _235
REMARK  100  A    between atoms: _235  and  _236
REMARK  101  A    between atoms: _236  and  _237
REMARK  102  A    between atoms: _240  and  _242
REMARK  103  A    between atoms: _242  and  _243
REMARK  104  A    between atoms: _242  and  _245
REMARK  105  A    between atoms: _245  and  _246
REMARK  106  A    between atoms: _251  and  _253
REMARK  107  A    between atoms: _253  and  _254
REMARK  108  A    between atoms: _253  and  _256
REMARK  109  A    between atoms: _256  and  _257
REMARK  110  A    between atoms: _257  and  _258
REMARK  111  A    between atoms: _258  and  _259
REMARK  112  A    between atoms: _268  and  _270
REMARK  113  A    between atoms: _270  and  _271
REMARK  114  A    between atoms: _270  and  _273
REMARK  115  A    between atoms: _273  and  _274
REMARK  116  A    between atoms: _274  and  _275
REMARK  117  A    between atoms: _275  and  _276
REMARK  118  A    between atoms: _285  and  _287
REMARK  119  A    between atoms: _287  and  _288
REMARK  120  A    between atoms: _287  and  _290
REMARK  121  A    between atoms: _290  and  _291
REMARK  122  A    between atoms: _294  and  _296
REMARK  123  A    between atoms: _296  and  _297
REMARK  124  A    between atoms: _296  and  _299
REMARK  125  A    between atoms: _299  and  _300
REMARK  126  A    between atoms: _305  and  _306
REMARK  127  A    between atoms: _308  and  _310
REMARK  128  A    between atoms: _310  and  _311
REMARK  129  A    between atoms: _314  and  _316
REMARK  130  A    between atoms: _316  and  _317
REMARK  131  A    between atoms: _316  and  _319
REMARK  132  A    between atoms: _319  and  _320
REMARK  133  A    between atoms: _320  and  _321
REMARK  134  A    between atoms: _323  and  _325
REMARK  135  A    between atoms: _325  and  _326
REMARK  136  A    between atoms: _325  and  _328
REMARK  137  A    between atoms: _328  and  _329
REMARK                            x       y       z     vdW  Elec       q    Type
REMARK                         _______ _______ _______ _____ _____    ______ ____
ROOT
ATOM      1  O   HOH     1     -17.024 -12.557   7.941  0.00  0.00    +0.000 OA
ENDROOT
TORSDOF 0
REMARK  Name = ../refined-set-2016/4j74/4j74_pocket.pdb
REMARK  137 active torsions:
REMARK  status: ('A' for Active; 'I' for Inactive)
REMARK    1  A    between atoms: _1  and  _3
REMARK    2  A    between atoms: _3  and  _4
REMARK    3  A    between atoms: _3  and  _6
REMARK    4  A    between atoms: _6  and  _7
REMARK    5  A    between atoms: _7  and  _8
REMARK    6  A    between atoms: _10  and  _12
REMARK    7  A    between atoms: _12  and  _13
REMARK    8  A    between atoms: _12  and  _15
REMARK    9  A    between atoms: _15  and  _16
REMARK   10  A    between atoms: _16  and  _17
REMARK   11  A    between atoms: _17  and  _18
REMARK   12  A    between atoms: _18  and  _19
REMARK   13  A    between atoms: _23  and  _25
REMARK   14  A    between atoms: _25  and  _26
REMARK   15  A    between atoms: _25  and  _28
REMARK   16  A    between atoms: _31  and  _33
REMARK   17  A    between atoms: _33  and  _34
REMARK   18  A    between atoms: _33  and  _36
REMARK   19  A    between atoms: _36  and  _37
REMARK   20  A    between atoms: _40  and  _42
REMARK   21  A    between atoms: _42  and  _43
REMARK   22  A    between atoms: _42  and  _45
REMARK   23  A    between atoms: _45  and  _46
REMARK   24  A    between atoms: _51  and  _52
REMARK   25  A    between atoms: _54  and  _56
REMARK   26  A    between atoms: _56  and  _57
REMARK   27  A    between atoms: _56  and  _59
REMARK   28  A    between atoms: _59  and  _60
REMARK   29  A    between atoms: _65  and  _67
REMARK   30  A    between atoms: _67  and  _68
REMARK   31  A    between atoms: _67  and  _70
REMARK   32  A    between atoms: _70  and  _71
REMARK   33  A    between atoms: _74  and  _76
REMARK   34  A    between atoms: _76  and  _77
REMARK   35  A    between atoms: _79  and  _81
REMARK   36  A    between atoms: _81  and  _82
REMARK   37  A    between atoms: _81  and  _84
REMARK   38  A    between atoms: _84  and  _85
REMARK   39  A    between atoms: _85  and  _86
REMARK   40  A    between atoms: _91  and  _93
REMARK   41  A    between atoms: _93  and  _94
REMARK   42  A    between atoms: _93  and  _96
REMARK   43  A    between atoms: _96  and  _97
REMARK   44  A    between atoms: _102  and  _103
REMARK   45  A    between atoms: _105  and  _107
REMARK   46  A    between atoms: _107  and  _108
REMARK   47  A    between atoms: _107  and  _110
REMARK   48  A    between atoms: _110  and  _111
REMARK   49  A    between atoms: _114  and  _116
REMARK   50  A    between atoms: _116  and  _117
REMARK   51  A    between atoms: _116  and  _119
REMARK   52  A    between atoms: _119  and  _120
REMARK   53  A    between atoms: _120  and  _121
REMARK   54  A    between atoms: _123  and  _125
REMARK   55  A    between atoms: _125  and  _126
REMARK   56  A    between atoms: _125  and  _128
REMARK   57  A    between atoms: _128  and  _129
REMARK   58  A    between atoms: _134  and  _135
REMARK   59  A    between atoms: _137  and  _139
REMARK   60  A    between atoms: _139  and  _140
REMARK   61  A    between atoms: _139  and  _142
REMARK   62  A    between atoms: _142  and  _143
REMARK   63  A    between atoms: _143  and  _144
REMARK   64  A    between atoms: _149  and  _151
REMARK   65  A    between atoms: _151  and  _152
REMARK   66  A    between atoms: _151  and  _154
REMARK   67  A    between atoms: _154  and  _155
REMARK   68  A    between atoms: _160  and  _162
REMARK   69  A    between atoms: _162  and  _163
REMARK   70  A    between atoms: _162  and  _165
REMARK   71  A    between atoms: _168  and  _170
REMARK   72  A    between atoms: _170  and  _171
REMARK   73  A    between atoms: _170  and  _173
REMARK   74  A    between atoms: _173  and  _174
REMARK   75  A    between atoms: _177  and  _179
REMARK   76  A    between atoms: _179  and  _180
REMARK   77  A    between atoms: _179  and  _182
REMARK   78  A    between atoms: _182  and  _183
REMARK   79  A    between atoms: _189  and  _191
REMARK   80  A    between atoms: _191  and  _192
REMARK   81  A    between atoms: _191  and  _194
REMARK   82  A    between atoms: _194  and  _195
REMARK   83  A    between atoms: _201  and  _203
REMARK   84  A    between atoms: _203  and  _204
REMARK   85  A    between atoms: _203  and  _206
REMARK   86  A    between atoms: _206  and  _207
REMARK   87  A    between atoms: _209  and  _211
REMARK   88  A    between atoms: _211  and  _212
REMARK   89  A    between atoms: _211  and  _214
REMARK   90  A    between atoms: _217  and  _219
REMARK   91  A    between atoms: _219  and  _220
REMARK   92  A    between atoms: _219  and  _222
REMARK   93  A    between atoms: _222  and  _223
REMARK   94  A    between atoms: _223  and  _224
REMARK   95  A    between atoms: _224  and  _225
REMARK   96  A    between atoms: _225  and  _226
REMARK   97  A    between atoms: _230  and  _232
REMARK   98  A    between atoms: _232  and  _233
REMARK   99  A    between atoms: _232  and  _235
REMARK  100  A    between atoms: _235  and  _236
REMARK  101  A    between atoms: _236  and  _237
REMARK  102  A    between atoms: _240  and  _242
REMARK  103  A    between atoms: _242  and  _243
REMARK  104  A    between atoms: _242  and  _245
REMARK  105  A    between atoms: _245  and  _246
REMARK  106  A    between atoms: _251  and  _253
REMARK  107  A    between atoms: _253  and  _254
REMARK  108  A    between atoms: _253  and  _256
REMARK  109  A    between atoms: _256  and  _257
REMARK  110  A    between atoms: _257  and  _258
REMARK  111  A    between atoms: _258  and  _259
REMARK  112  A    between atoms: _268  and  _270
REMARK  113  A    between atoms: _270  and  _271
REMARK  114  A    between atoms: _270  and  _273
REMARK  115  A    between atoms: _273  and  _274
REMARK  116  A    between atoms: _274  and  _275
REMARK  117  A    between atoms: _275  and  _276
REMARK  118  A    between atoms: _285  and  _287
REMARK  119  A    between atoms: _287  and  _288
REMARK  120  A    between atoms: _287  and  _290
REMARK  121  A    between atoms: _290  and  _291
REMARK  122  A    between atoms: _294  and  _296
REMARK  123  A    between atoms: _296  and  _297
REMARK  124  A    between atoms: _296  and  _299
REMARK  125  A    between atoms: _299  and  _300
REMARK  126  A    between atoms: _305  and  _306
REMARK  127  A    between atoms: _308  and  _310
REMARK  128  A    between atoms: _310  and  _311
REMARK  129  A    between atoms: _314  and  _316
REMARK  130  A    between atoms: _316  and  _317
REMARK  131  A    between atoms: _316  and  _319
REMARK  132  A    between atoms: _319  and  _320
REMARK  133  A    between atoms: _320  and  _321
REMARK  134  A    between atoms: _323  and  _325
REMARK  135  A    between atoms: _325  and  _326
REMARK  136  A    between atoms: _325  and  _328
REMARK  137  A    between atoms: _328  and  _329
REMARK                            x       y       z     vdW  Elec       q    Type
REMARK                         _______ _______ _______ _____ _____    ______ ____
ROOT
ATOM      1  O   HOH     1     -11.367 -12.524   5.605  0.00  0.00    +0.000 OA
ENDROOT
TORSDOF 0
REMARK  Name = ../refined-set-2016/4j74/4j74_pocket.pdb
REMARK  137 active torsions:
REMARK  status: ('A' for Active; 'I' for Inactive)
REMARK    1  A    between atoms: _1  and  _3
REMARK    2  A    between atoms: _3  and  _4
REMARK    3  A    between atoms: _3  and  _6
REMARK    4  A    between atoms: _6  and  _7
REMARK    5  A    between atoms: _7  and  _8
REMARK    6  A    between atoms: _10  and  _12
REMARK    7  A    between atoms: _12  and  _13
REMARK    8  A    between atoms: _12  and  _15
REMARK    9  A    between atoms: _15  and  _16
REMARK   10  A    between atoms: _16  and  _17
REMARK   11  A    between atoms: _17  and  _18
REMARK   12  A    between atoms: _18  and  _19
REMARK   13  A    between atoms: _23  and  _25
REMARK   14  A    between atoms: _25  and  _26
REMARK   15  A    between atoms: _25  and  _28
REMARK   16  A    between atoms: _31  and  _33
REMARK   17  A    between atoms: _33  and  _34
REMARK   18  A    between atoms: _33  and  _36
REMARK   19  A    between atoms: _36  and  _37
REMARK   20  A    between atoms: _40  and  _42
REMARK   21  A    between atoms: _42  and  _43
REMARK   22  A    between atoms: _42  and  _45
REMARK   23  A    between atoms: _45  and  _46
REMARK   24  A    between atoms: _51  and  _52
REMARK   25  A    between atoms: _54  and  _56
REMARK   26  A    between atoms: _56  and  _57
REMARK   27  A    between atoms: _56  and  _59
REMARK   28  A    between atoms: _59  and  _60
REMARK   29  A    between atoms: _65  and  _67
REMARK   30  A    between atoms: _67  and  _68
REMARK   31  A    between atoms: _67  and  _70
REMARK   32  A    between atoms: _70  and  _71
REMARK   33  A    between atoms: _74  and  _76
REMARK   34  A    between atoms: _76  and  _77
REMARK   35  A    between atoms: _79  and  _81
REMARK   36  A    between atoms: _81  and  _82
REMARK   37  A    between atoms: _81  and  _84
REMARK   38  A    between atoms: _84  and  _85
REMARK   39  A    between atoms: _85  and  _86
REMARK   40  A    between atoms: _91  and  _93
REMARK   41  A    between atoms: _93  and  _94
REMARK   42  A    between atoms: _93  and  _96
REMARK   43  A    between atoms: _96  and  _97
REMARK   44  A    between atoms: _102  and  _103
REMARK   45  A    between atoms: _105  and  _107
REMARK   46  A    between atoms: _107  and  _108
REMARK   47  A    between atoms: _107  and  _110
REMARK   48  A    between atoms: _110  and  _111
REMARK   49  A    between atoms: _114  and  _116
REMARK   50  A    between atoms: _116  and  _117
REMARK   51  A    between atoms: _116  and  _119
REMARK   52  A    between atoms: _119  and  _120
REMARK   53  A    between atoms: _120  and  _121
REMARK   54  A    between atoms: _123  and  _125
REMARK   55  A    between atoms: _125  and  _126
REMARK   56  A    between atoms: _125  and  _128
REMARK   57  A    between atoms: _128  and  _129
REMARK   58  A    between atoms: _134  and  _135
REMARK   59  A    between atoms: _137  and  _139
REMARK   60  A    between atoms: _139  and  _140
REMARK   61  A    between atoms: _139  and  _142
REMARK   62  A    between atoms: _142  and  _143
REMARK   63  A    between atoms: _143  and  _144
REMARK   64  A    between atoms: _149  and  _151
REMARK   65  A    between atoms: _151  and  _152
REMARK   66  A    between atoms: _151  and  _154
REMARK   67  A    between atoms: _154  and  _155
REMARK   68  A    between atoms: _160  and  _162
REMARK   69  A    between atoms: _162  and  _163
REMARK   70  A    between atoms: _162  and  _165
REMARK   71  A    between atoms: _168  and  _170
REMARK   72  A    between atoms: _170  and  _171
REMARK   73  A    between atoms: _170  and  _173
REMARK   74  A    between atoms: _173  and  _174
REMARK   75  A    between atoms: _177  and  _179
REMARK   76  A    between atoms: _179  and  _180
REMARK   77  A    between atoms: _179  and  _182
REMARK   78  A    between atoms: _182  and  _183
REMARK   79  A    between atoms: _189  and  _191
REMARK   80  A    between atoms: _191  and  _192
REMARK   81  A    between atoms: _191  and  _194
REMARK   82  A    between atoms: _194  and  _195
REMARK   83  A    between atoms: _201  and  _203
REMARK   84  A    between atoms: _203  and  _204
REMARK   85  A    between atoms: _203  and  _206
REMARK   86  A    between atoms: _206  and  _207
REMARK   87  A    between atoms: _209  and  _211
REMARK   88  A    between atoms: _211  and  _212
REMARK   89  A    between atoms: _211  and  _214
REMARK   90  A    between atoms: _217  and  _219
REMARK   91  A    between atoms: _219  and  _220
REMARK   92  A    between atoms: _219  and  _222
REMARK   93  A    between atoms: _222  and  _223
REMARK   94  A    between atoms: _223  and  _224
REMARK   95  A    between atoms: _224  and  _225
REMARK   96  A    between atoms: _225  and  _226
REMARK   97  A    between atoms: _230  and  _232
REMARK   98  A    between atoms: _232  and  _233
REMARK   99  A    between atoms: _232  and  _235
REMARK  100  A    between atoms: _235  and  _236
REMARK  101  A    between atoms: _236  and  _237
REMARK  102  A    between atoms: _240  and  _242
REMARK  103  A    between atoms: _242  and  _243
REMARK  104  A    between atoms: _242  and  _245
REMARK  105  A    between atoms: _245  and  _246
REMARK  106  A    between atoms: _251  and  _253
REMARK  107  A    between atoms: _253  and  _254
REMARK  108  A    between atoms: _253  and  _256
REMARK  109  A    between atoms: _256  and  _257
REMARK  110  A    between atoms: _257  and  _258
REMARK  111  A    between atoms: _258  and  _259
REMARK  112  A    between atoms: _268  and  _270
REMARK  113  A    between atoms: _270  and  _271
REMARK  114  A    between atoms: _270  and  _273
REMARK  115  A    between atoms: _273  and  _274
REMARK  116  A    between atoms: _274  and  _275
REMARK  117  A    between atoms: _275  and  _276
REMARK  118  A    between atoms: _285  and  _287
REMARK  119  A    between atoms: _287  and  _288
REMARK  120  A    between atoms: _287  and  _290
REMARK  121  A    between atoms: _290  and  _291
REMARK  122  A    between atoms: _294  and  _296
REMARK  123  A    between atoms: _296  and  _297
REMARK  124  A    between atoms: _296  and  _299
REMARK  125  A    between atoms: _299  and  _300
REMARK  126  A    between atoms: _305  and  _306
REMARK  127  A    between atoms: _308  and  _310
REMARK  128  A    between atoms: _310  and  _311
REMARK  129  A    between atoms: _314  and  _316
REMARK  130  A    between atoms: _316  and  _317
REMARK  131  A    between atoms: _316  and  _319
REMARK  132  A    between atoms: _319  and  _320
REMARK  133  A    between atoms: _320  and  _321
REMARK  134  A    between atoms: _323  and  _325
REMARK  135  A    between atoms: _325  and  _326
REMARK  136  A    between atoms: _325  and  _328
REMARK  137  A    between atoms: _328  and  _329
REMARK                            x       y       z     vdW  Elec       q    Type
REMARK                         _______ _______ _______ _____ _____    ______ ____
ROOT
ATOM      1  O   HOH     1      -2.844 -13.772  -2.549  0.00  0.00    +0.000 OA
ENDROOT
TORSDOF 0
REMARK  Name = ../refined-set-2016/4j74/4j74_pocket.pdb
REMARK  137 active torsions:
REMARK  status: ('A' for Active; 'I' for Inactive)
REMARK    1  A    between atoms: _1  and  _3
REMARK    2  A    between atoms: _3  and  _4
REMARK    3  A    between atoms: _3  and  _6
REMARK    4  A    between atoms: _6  and  _7
REMARK    5  A    between atoms: _7  and  _8
REMARK    6  A    between atoms: _10  and  _12
REMARK    7  A    between atoms: _12  and  _13
REMARK    8  A    between atoms: _12  and  _15
REMARK    9  A    between atoms: _15  and  _16
REMARK   10  A    between atoms: _16  and  _17
REMARK   11  A    between atoms: _17  and  _18
REMARK   12  A    between atoms: _18  and  _19
REMARK   13  A    between atoms: _23  and  _25
REMARK   14  A    between atoms: _25  and  _26
REMARK   15  A    between atoms: _25  and  _28
REMARK   16  A    between atoms: _31  and  _33
REMARK   17  A    between atoms: _33  and  _34
REMARK   18  A    between atoms: _33  and  _36
REMARK   19  A    between atoms: _36  and  _37
REMARK   20  A    between atoms: _40  and  _42
REMARK   21  A    between atoms: _42  and  _43
REMARK   22  A    between atoms: _42  and  _45
REMARK   23  A    between atoms: _45  and  _46
REMARK   24  A    between atoms: _51  and  _52
REMARK   25  A    between atoms: _54  and  _56
REMARK   26  A    between atoms: _56  and  _57
REMARK   27  A    between atoms: _56  and  _59
REMARK   28  A    between atoms: _59  and  _60
REMARK   29  A    between atoms: _65  and  _67
REMARK   30  A    between atoms: _67  and  _68
REMARK   31  A    between atoms: _67  and  _70
REMARK   32  A    between atoms: _70  and  _71
REMARK   33  A    between atoms: _74  and  _76
REMARK   34  A    between atoms: _76  and  _77
REMARK   35  A    between atoms: _79  and  _81
REMARK   36  A    between atoms: _81  and  _82
REMARK   37  A    between atoms: _81  and  _84
REMARK   38  A    between atoms: _84  and  _85
REMARK   39  A    between atoms: _85  and  _86
REMARK   40  A    between atoms: _91  and  _93
REMARK   41  A    between atoms: _93  and  _94
REMARK   42  A    between atoms: _93  and  _96
REMARK   43  A    between atoms: _96  and  _97
REMARK   44  A    between atoms: _102  and  _103
REMARK   45  A    between atoms: _105  and  _107
REMARK   46  A    between atoms: _107  and  _108
REMARK   47  A    between atoms: _107  and  _110
REMARK   48  A    between atoms: _110  and  _111
REMARK   49  A    between atoms: _114  and  _116
REMARK   50  A    between atoms: _116  and  _117
REMARK   51  A    between atoms: _116  and  _119
REMARK   52  A    between atoms: _119  and  _120
REMARK   53  A    between atoms: _120  and  _121
REMARK   54  A    between atoms: _123  and  _125
REMARK   55  A    between atoms: _125  and  _126
REMARK   56  A    between atoms: _125  and  _128
REMARK   57  A    between atoms: _128  and  _129
REMARK   58  A    between atoms: _134  and  _135
REMARK   59  A    between atoms: _137  and  _139
REMARK   60  A    between atoms: _139  and  _140
REMARK   61  A    between atoms: _139  and  _142
REMARK   62  A    between atoms: _142  and  _143
REMARK   63  A    between atoms: _143  and  _144
REMARK   64  A    between atoms: _149  and  _151
REMARK   65  A    between atoms: _151  and  _152
REMARK   66  A    between atoms: _151  and  _154
REMARK   67  A    between atoms: _154  and  _155
REMARK   68  A    between atoms: _160  and  _162
REMARK   69  A    between atoms: _162  and  _163
REMARK   70  A    between atoms: _162  and  _165
REMARK   71  A    between atoms: _168  and  _170
REMARK   72  A    between atoms: _170  and  _171
REMARK   73  A    between atoms: _170  and  _173
REMARK   74  A    between atoms: _173  and  _174
REMARK   75  A    between atoms: _177  and  _179
REMARK   76  A    between atoms: _179  and  _180
REMARK   77  A    between atoms: _179  and  _182
REMARK   78  A    between atoms: _182  and  _183
REMARK   79  A    between atoms: _189  and  _191
REMARK   80  A    between atoms: _191  and  _192
REMARK   81  A    between atoms: _191  and  _194
REMARK   82  A    between atoms: _194  and  _195
REMARK   83  A    between atoms: _201  and  _203
REMARK   84  A    between atoms: _203  and  _204
REMARK   85  A    between atoms: _203  and  _206
REMARK   86  A    between atoms: _206  and  _207
REMARK   87  A    between atoms: _209  and  _211
REMARK   88  A    between atoms: _211  and  _212
REMARK   89  A    between atoms: _211  and  _214
REMARK   90  A    between atoms: _217  and  _219
REMARK   91  A    between atoms: _219  and  _220
REMARK   92  A    between atoms: _219  and  _222
REMARK   93  A    between atoms: _222  and  _223
REMARK   94  A    between atoms: _223  and  _224
REMARK   95  A    between atoms: _224  and  _225
REMARK   96  A    between atoms: _225  and  _226
REMARK   97  A    between atoms: _230  and  _232
REMARK   98  A    between atoms: _232  and  _233
REMARK   99  A    between atoms: _232  and  _235
REMARK  100  A    between atoms: _235  and  _236
REMARK  101  A    between atoms: _236  and  _237
REMARK  102  A    between atoms: _240  and  _242
REMARK  103  A    between atoms: _242  and  _243
REMARK  104  A    between atoms: _242  and  _245
REMARK  105  A    between atoms: _245  and  _246
REMARK  106  A    between atoms: _251  and  _253
REMARK  107  A    between atoms: _253  and  _254
REMARK  108  A    between atoms: _253  and  _256
REMARK  109  A    between atoms: _256  and  _257
REMARK  110  A    between atoms: _257  and  _258
REMARK  111  A    between atoms: _258  and  _259
REMARK  112  A    between atoms: _268  and  _270
REMARK  113  A    between atoms: _270  and  _271
REMARK  114  A    between atoms: _270  and  _273
REMARK  115  A    between atoms: _273  and  _274
REMARK  116  A    between atoms: _274  and  _275
REMARK  117  A    between atoms: _275  and  _276
REMARK  118  A    between atoms: _285  and  _287
REMARK  119  A    between atoms: _287  and  _288
REMARK  120  A    between atoms: _287  and  _290
REMARK  121  A    between atoms: _290  and  _291
REMARK  122  A    between atoms: _294  and  _296
REMARK  123  A    between atoms: _296  and  _297
REMARK  124  A    between atoms: _296  and  _299
REMARK  125  A    between atoms: _299  and  _300
REMARK  126  A    between atoms: _305  and  _306
REMARK  127  A    between atoms: _308  and  _310
REMARK  128  A    between atoms: _310  and  _311
REMARK  129  A    between atoms: _314  and  _316
REMARK  130  A    between atoms: _316  and  _317
REMARK  131  A    between atoms: _316  and  _319
REMARK  132  A    between atoms: _319  and  _320
REMARK  133  A    between atoms: _320  and  _321
REMARK  134  A    between atoms: _323  and  _325
REMARK  135  A    between atoms: _325  and  _326
REMARK  136  A    between atoms: _325  and  _328
REMARK  137  A    between atoms: _328  and  _329
REMARK                            x       y       z     vdW  Elec       q    Type
REMARK                         _______ _______ _______ _____ _____    ______ ____
ROOT
ATOM      1  O   HOH     1      -5.841 -14.091  -0.575  0.00  0.00    +0.000 OA
ENDROOT
TORSDOF 0
REMARK  Name = ../refined-set-2016/4j74/4j74_pocket.pdb
REMARK  137 active torsions:
REMARK  status: ('A' for Active; 'I' for Inactive)
REMARK    1  A    between atoms: _1  and  _3
REMARK    2  A    between atoms: _3  and  _4
REMARK    3  A    between atoms: _3  and  _6
REMARK    4  A    between atoms: _6  and  _7
REMARK    5  A    between atoms: _7  and  _8
REMARK    6  A    between atoms: _10  and  _12
REMARK    7  A    between atoms: _12  and  _13
REMARK    8  A    between atoms: _12  and  _15
REMARK    9  A    between atoms: _15  and  _16
REMARK   10  A    between atoms: _16  and  _17
REMARK   11  A    between atoms: _17  and  _18
REMARK   12  A    between atoms: _18  and  _19
REMARK   13  A    between atoms: _23  and  _25
REMARK   14  A    between atoms: _25  and  _26
REMARK   15  A    between atoms: _25  and  _28
REMARK   16  A    between atoms: _31  and  _33
REMARK   17  A    between atoms: _33  and  _34
REMARK   18  A    between atoms: _33  and  _36
REMARK   19  A    between atoms: _36  and  _37
REMARK   20  A    between atoms: _40  and  _42
REMARK   21  A    between atoms: _42  and  _43
REMARK   22  A    between atoms: _42  and  _45
REMARK   23  A    between atoms: _45  and  _46
REMARK   24  A    between atoms: _51  and  _52
REMARK   25  A    between atoms: _54  and  _56
REMARK   26  A    between atoms: _56  and  _57
REMARK   27  A    between atoms: _56  and  _59
REMARK   28  A    between atoms: _59  and  _60
REMARK   29  A    between atoms: _65  and  _67
REMARK   30  A    between atoms: _67  and  _68
REMARK   31  A    between atoms: _67  and  _70
REMARK   32  A    between atoms: _70  and  _71
REMARK   33  A    between atoms: _74  and  _76
REMARK   34  A    between atoms: _76  and  _77
REMARK   35  A    between atoms: _79  and  _81
REMARK   36  A    between atoms: _81  and  _82
REMARK   37  A    between atoms: _81  and  _84
REMARK   38  A    between atoms: _84  and  _85
REMARK   39  A    between atoms: _85  and  _86
REMARK   40  A    between atoms: _91  and  _93
REMARK   41  A    between atoms: _93  and  _94
REMARK   42  A    between atoms: _93  and  _96
REMARK   43  A    between atoms: _96  and  _97
REMARK   44  A    between atoms: _102  and  _103
REMARK   45  A    between atoms: _105  and  _107
REMARK   46  A    between atoms: _107  and  _108
REMARK   47  A    between atoms: _107  and  _110
REMARK   48  A    between atoms: _110  and  _111
REMARK   49  A    between atoms: _114  and  _116
REMARK   50  A    between atoms: _116  and  _117
REMARK   51  A    between atoms: _116  and  _119
REMARK   52  A    between atoms: _119  and  _120
REMARK   53  A    between atoms: _120  and  _121
REMARK   54  A    between atoms: _123  and  _125
REMARK   55  A    between atoms: _125  and  _126
REMARK   56  A    between atoms: _125  and  _128
REMARK   57  A    between atoms: _128  and  _129
REMARK   58  A    between atoms: _134  and  _135
REMARK   59  A    between atoms: _137  and  _139
REMARK   60  A    between atoms: _139  and  _140
REMARK   61  A    between atoms: _139  and  _142
REMARK   62  A    between atoms: _142  and  _143
REMARK   63  A    between atoms: _143  and  _144
REMARK   64  A    between atoms: _149  and  _151
REMARK   65  A    between atoms: _151  and  _152
REMARK   66  A    between atoms: _151  and  _154
REMARK   67  A    between atoms: _154  and  _155
REMARK   68  A    between atoms: _160  and  _162
REMARK   69  A    between atoms: _162  and  _163
REMARK   70  A    between atoms: _162  and  _165
REMARK   71  A    between atoms: _168  and  _170
REMARK   72  A    between atoms: _170  and  _171
REMARK   73  A    between atoms: _170  and  _173
REMARK   74  A    between atoms: _173  and  _174
REMARK   75  A    between atoms: _177  and  _179
REMARK   76  A    between atoms: _179  and  _180
REMARK   77  A    between atoms: _179  and  _182
REMARK   78  A    between atoms: _182  and  _183
REMARK   79  A    between atoms: _189  and  _191
REMARK   80  A    between atoms: _191  and  _192
REMARK   81  A    between atoms: _191  and  _194
REMARK   82  A    between atoms: _194  and  _195
REMARK   83  A    between atoms: _201  and  _203
REMARK   84  A    between atoms: _203  and  _204
REMARK   85  A    between atoms: _203  and  _206
REMARK   86  A    between atoms: _206  and  _207
REMARK   87  A    between atoms: _209  and  _211
REMARK   88  A    between atoms: _211  and  _212
REMARK   89  A    between atoms: _211  and  _214
REMARK   90  A    between atoms: _217  and  _219
REMARK   91  A    between atoms: _219  and  _220
REMARK   92  A    between atoms: _219  and  _222
REMARK   93  A    between atoms: _222  and  _223
REMARK   94  A    between atoms: _223  and  _224
REMARK   95  A    between atoms: _224  and  _225
REMARK   96  A    between atoms: _225  and  _226
REMARK   97  A    between atoms: _230  and  _232
REMARK   98  A    between atoms: _232  and  _233
REMARK   99  A    between atoms: _232  and  _235
REMARK  100  A    between atoms: _235  and  _236
REMARK  101  A    between atoms: _236  and  _237
REMARK  102  A    between atoms: _240  and  _242
REMARK  103  A    between atoms: _242  and  _243
REMARK  104  A    between atoms: _242  and  _245
REMARK  105  A    between atoms: _245  and  _246
REMARK  106  A    between atoms: _251  and  _253
REMARK  107  A    between atoms: _253  and  _254
REMARK  108  A    between atoms: _253  and  _256
REMARK  109  A    between atoms: _256  and  _257
REMARK  110  A    between atoms: _257  and  _258
REMARK  111  A    between atoms: _258  and  _259
REMARK  112  A    between atoms: _268  and  _270
REMARK  113  A    between atoms: _270  and  _271
REMARK  114  A    between atoms: _270  and  _273
REMARK  115  A    between atoms: _273  and  _274
REMARK  116  A    between atoms: _274  and  _275
REMARK  117  A    between atoms: _275  and  _276
REMARK  118  A    between atoms: _285  and  _287
REMARK  119  A    between atoms: _287  and  _288
REMARK  120  A    between atoms: _287  and  _290
REMARK  121  A    between atoms: _290  and  _291
REMARK  122  A    between atoms: _294  and  _296
REMARK  123  A    between atoms: _296  and  _297
REMARK  124  A    between atoms: _296  and  _299
REMARK  125  A    between atoms: _299  and  _300
REMARK  126  A    between atoms: _305  and  _306
REMARK  127  A    between atoms: _308  and  _310
REMARK  128  A    between atoms: _310  and  _311
REMARK  129  A    between atoms: _314  and  _316
REMARK  130  A    between atoms: _316  and  _317
REMARK  131  A    between atoms: _316  and  _319
REMARK  132  A    between atoms: _319  and  _320
REMARK  133  A    between atoms: _320  and  _321
REMARK  134  A    between atoms: _323  and  _325
REMARK  135  A    between atoms: _325  and  _326
REMARK  136  A    between atoms: _325  and  _328
REMARK  137  A    between atoms: _328  and  _329
REMARK                            x       y       z     vdW  Elec       q    Type
REMARK                         _______ _______ _______ _____ _____    ______ ____
ROOT
ATOM      1  O   HOH     1     -15.731  -6.237   1.188  0.00  0.00    +0.000 OA
ENDROOT
TORSDOF 0
REMARK  Name = ../refined-set-2016/4j74/4j74_pocket.pdb
REMARK  137 active torsions:
REMARK  status: ('A' for Active; 'I' for Inactive)
REMARK    1  A    between atoms: _1  and  _3
REMARK    2  A    between atoms: _3  and  _4
REMARK    3  A    between atoms: _3  and  _6
REMARK    4  A    between atoms: _6  and  _7
REMARK    5  A    between atoms: _7  and  _8
REMARK    6  A    between atoms: _10  and  _12
REMARK    7  A    between atoms: _12  and  _13
REMARK    8  A    between atoms: _12  and  _15
REMARK    9  A    between atoms: _15  and  _16
REMARK   10  A    between atoms: _16  and  _17
REMARK   11  A    between atoms: _17  and  _18
REMARK   12  A    between atoms: _18  and  _19
REMARK   13  A    between atoms: _23  and  _25
REMARK   14  A    between atoms: _25  and  _26
REMARK   15  A    between atoms: _25  and  _28
REMARK   16  A    between atoms: _31  and  _33
REMARK   17  A    between atoms: _33  and  _34
REMARK   18  A    between atoms: _33  and  _36
REMARK   19  A    between atoms: _36  and  _37
REMARK   20  A    between atoms: _40  and  _42
REMARK   21  A    between atoms: _42  and  _43
REMARK   22  A    between atoms: _42  and  _45
REMARK   23  A    between atoms: _45  and  _46
REMARK   24  A    between atoms: _51  and  _52
REMARK   25  A    between atoms: _54  and  _56
REMARK   26  A    between atoms: _56  and  _57
REMARK   27  A    between atoms: _56  and  _59
REMARK   28  A    between atoms: _59  and  _60
REMARK   29  A    between atoms: _65  and  _67
REMARK   30  A    between atoms: _67  and  _68
REMARK   31  A    between atoms: _67  and  _70
REMARK   32  A    between atoms: _70  and  _71
REMARK   33  A    between atoms: _74  and  _76
REMARK   34  A    between atoms: _76  and  _77
REMARK   35  A    between atoms: _79  and  _81
REMARK   36  A    between atoms: _81  and  _82
REMARK   37  A    between atoms: _81  and  _84
REMARK   38  A    between atoms: _84  and  _85
REMARK   39  A    between atoms: _85  and  _86
REMARK   40  A    between atoms: _91  and  _93
REMARK   41  A    between atoms: _93  and  _94
REMARK   42  A    between atoms: _93  and  _96
REMARK   43  A    between atoms: _96  and  _97
REMARK   44  A    between atoms: _102  and  _103
REMARK   45  A    between atoms: _105  and  _107
REMARK   46  A    between atoms: _107  and  _108
REMARK   47  A    between atoms: _107  and  _110
REMARK   48  A    between atoms: _110  and  _111
REMARK   49  A    between atoms: _114  and  _116
REMARK   50  A    between atoms: _116  and  _117
REMARK   51  A    between atoms: _116  and  _119
REMARK   52  A    between atoms: _119  and  _120
REMARK   53  A    between atoms: _120  and  _121
REMARK   54  A    between atoms: _123  and  _125
REMARK   55  A    between atoms: _125  and  _126
REMARK   56  A    between atoms: _125  and  _128
REMARK   57  A    between atoms: _128  and  _129
REMARK   58  A    between atoms: _134  and  _135
REMARK   59  A    between atoms: _137  and  _139
REMARK   60  A    between atoms: _139  and  _140
REMARK   61  A    between atoms: _139  and  _142
REMARK   62  A    between atoms: _142  and  _143
REMARK   63  A    between atoms: _143  and  _144
REMARK   64  A    between atoms: _149  and  _151
REMARK   65  A    between atoms: _151  and  _152
REMARK   66  A    between atoms: _151  and  _154
REMARK   67  A    between atoms: _154  and  _155
REMARK   68  A    between atoms: _160  and  _162
REMARK   69  A    between atoms: _162  and  _163
REMARK   70  A    between atoms: _162  and  _165
REMARK   71  A    between atoms: _168  and  _170
REMARK   72  A    between atoms: _170  and  _171
REMARK   73  A    between atoms: _170  and  _173
REMARK   74  A    between atoms: _173  and  _174
REMARK   75  A    between atoms: _177  and  _179
REMARK   76  A    between atoms: _179  and  _180
REMARK   77  A    between atoms: _179  and  _182
REMARK   78  A    between atoms: _182  and  _183
REMARK   79  A    between atoms: _189  and  _191
REMARK   80  A    between atoms: _191  and  _192
REMARK   81  A    between atoms: _191  and  _194
REMARK   82  A    between atoms: _194  and  _195
REMARK   83  A    between atoms: _201  and  _203
REMARK   84  A    between atoms: _203  and  _204
REMARK   85  A    between atoms: _203  and  _206
REMARK   86  A    between atoms: _206  and  _207
REMARK   87  A    between atoms: _209  and  _211
REMARK   88  A    between atoms: _211  and  _212
REMARK   89  A    between atoms: _211  and  _214
REMARK   90  A    between atoms: _217  and  _219
REMARK   91  A    between atoms: _219  and  _220
REMARK   92  A    between atoms: _219  and  _222
REMARK   93  A    between atoms: _222  and  _223
REMARK   94  A    between atoms: _223  and  _224
REMARK   95  A    between atoms: _224  and  _225
REMARK   96  A    between atoms: _225  and  _226
REMARK   97  A    between atoms: _230  and  _232
REMARK   98  A    between atoms: _232  and  _233
REMARK   99  A    between atoms: _232  and  _235
REMARK  100  A    between atoms: _235  and  _236
REMARK  101  A    between atoms: _236  and  _237
REMARK  102  A    between atoms: _240  and  _242
REMARK  103  A    between atoms: _242  and  _243
REMARK  104  A    between atoms: _242  and  _245
REMARK  105  A    between atoms: _245  and  _246
REMARK  106  A    between atoms: _251  and  _253
REMARK  107  A    between atoms: _253  and  _254
REMARK  108  A    between atoms: _253  and  _256
REMARK  109  A    between atoms: _256  and  _257
REMARK  110  A    between atoms: _257  and  _258
REMARK  111  A    between atoms: _258  and  _259
REMARK  112  A    between atoms: _268  and  _270
REMARK  113  A    between atoms: _270  and  _271
REMARK  114  A    between atoms: _270  and  _273
REMARK  115  A    between atoms: _273  and  _274
REMARK  116  A    between atoms: _274  and  _275
REMARK  117  A    between atoms: _275  and  _276
REMARK  118  A    between atoms: _285  and  _287
REMARK  119  A    between atoms: _287  and  _288
REMARK  120  A    between atoms: _287  and  _290
REMARK  121  A    between atoms: _290  and  _291
REMARK  122  A    between atoms: _294  and  _296
REMARK  123  A    between atoms: _296  and  _297
REMARK  124  A    between atoms: _296  and  _299
REMARK  125  A    between atoms: _299  and  _300
REMARK  126  A    between atoms: _305  and  _306
REMARK  127  A    between atoms: _308  and  _310
REMARK  128  A    between atoms: _310  and  _311
REMARK  129  A    between atoms: _314  and  _316
REMARK  130  A    between atoms: _316  and  _317
REMARK  131  A    between atoms: _316  and  _319
REMARK  132  A    between atoms: _319  and  _320
REMARK  133  A    between atoms: _320  and  _321
REMARK  134  A    between atoms: _323  and  _325
REMARK  135  A    between atoms: _325  and  _326
REMARK  136  A    between atoms: _325  and  _328
REMARK  137  A    between atoms: _328  and  _329
REMARK                            x       y       z     vdW  Elec       q    Type
REMARK                         _______ _______ _______ _____ _____    ______ ____
ROOT
ATOM      1  O   HOH     1     -10.627  -6.340   1.322  0.00  0.00    +0.000 OA
ENDROOT
TORSDOF 0
REMARK  Name = ../refined-set-2016/4j74/4j74_pocket.pdb
REMARK  137 active torsions:
REMARK  status: ('A' for Active; 'I' for Inactive)
REMARK    1  A    between atoms: _1  and  _3
REMARK    2  A    between atoms: _3  and  _4
REMARK    3  A    between atoms: _3  and  _6
REMARK    4  A    between atoms: _6  and  _7
REMARK    5  A    between atoms: _7  and  _8
REMARK    6  A    between atoms: _10  and  _12
REMARK    7  A    between atoms: _12  and  _13
REMARK    8  A    between atoms: _12  and  _15
REMARK    9  A    between atoms: _15  and  _16
REMARK   10  A    between atoms: _16  and  _17
REMARK   11  A    between atoms: _17  and  _18
REMARK   12  A    between atoms: _18  and  _19
REMARK   13  A    between atoms: _23  and  _25
REMARK   14  A    between atoms: _25  and  _26
REMARK   15  A    between atoms: _25  and  _28
REMARK   16  A    between atoms: _31  and  _33
REMARK   17  A    between atoms: _33  and  _34
REMARK   18  A    between atoms: _33  and  _36
REMARK   19  A    between atoms: _36  and  _37
REMARK   20  A    between atoms: _40  and  _42
REMARK   21  A    between atoms: _42  and  _43
REMARK   22  A    between atoms: _42  and  _45
REMARK   23  A    between atoms: _45  and  _46
REMARK   24  A    between atoms: _51  and  _52
REMARK   25  A    between atoms: _54  and  _56
REMARK   26  A    between atoms: _56  and  _57
REMARK   27  A    between atoms: _56  and  _59
REMARK   28  A    between atoms: _59  and  _60
REMARK   29  A    between atoms: _65  and  _67
REMARK   30  A    between atoms: _67  and  _68
REMARK   31  A    between atoms: _67  and  _70
REMARK   32  A    between atoms: _70  and  _71
REMARK   33  A    between atoms: _74  and  _76
REMARK   34  A    between atoms: _76  and  _77
REMARK   35  A    between atoms: _79  and  _81
REMARK   36  A    between atoms: _81  and  _82
REMARK   37  A    between atoms: _81  and  _84
REMARK   38  A    between atoms: _84  and  _85
REMARK   39  A    between atoms: _85  and  _86
REMARK   40  A    between atoms: _91  and  _93
REMARK   41  A    between atoms: _93  and  _94
REMARK   42  A    between atoms: _93  and  _96
REMARK   43  A    between atoms: _96  and  _97
REMARK   44  A    between atoms: _102  and  _103
REMARK   45  A    between atoms: _105  and  _107
REMARK   46  A    between atoms: _107  and  _108
REMARK   47  A    between atoms: _107  and  _110
REMARK   48  A    between atoms: _110  and  _111
REMARK   49  A    between atoms: _114  and  _116
REMARK   50  A    between atoms: _116  and  _117
REMARK   51  A    between atoms: _116  and  _119
REMARK   52  A    between atoms: _119  and  _120
REMARK   53  A    between atoms: _120  and  _121
REMARK   54  A    between atoms: _123  and  _125
REMARK   55  A    between atoms: _125  and  _126
REMARK   56  A    between atoms: _125  and  _128
REMARK   57  A    between atoms: _128  and  _129
REMARK   58  A    between atoms: _134  and  _135
REMARK   59  A    between atoms: _137  and  _139
REMARK   60  A    between atoms: _139  and  _140
REMARK   61  A    between atoms: _139  and  _142
REMARK   62  A    between atoms: _142  and  _143
REMARK   63  A    between atoms: _143  and  _144
REMARK   64  A    between atoms: _149  and  _151
REMARK   65  A    between atoms: _151  and  _152
REMARK   66  A    between atoms: _151  and  _154
REMARK   67  A    between atoms: _154  and  _155
REMARK   68  A    between atoms: _160  and  _162
REMARK   69  A    between atoms: _162  and  _163
REMARK   70  A    between atoms: _162  and  _165
REMARK   71  A    between atoms: _168  and  _170
REMARK   72  A    between atoms: _170  and  _171
REMARK   73  A    between atoms: _170  and  _173
REMARK   74  A    between atoms: _173  and  _174
REMARK   75  A    between atoms: _177  and  _179
REMARK   76  A    between atoms: _179  and  _180
REMARK   77  A    between atoms: _179  and  _182
REMARK   78  A    between atoms: _182  and  _183
REMARK   79  A    between atoms: _189  and  _191
REMARK   80  A    between atoms: _191  and  _192
REMARK   81  A    between atoms: _191  and  _194
REMARK   82  A    between atoms: _194  and  _195
REMARK   83  A    between atoms: _201  and  _203
REMARK   84  A    between atoms: _203  and  _204
REMARK   85  A    between atoms: _203  and  _206
REMARK   86  A    between atoms: _206  and  _207
REMARK   87  A    between atoms: _209  and  _211
REMARK   88  A    between atoms: _211  and  _212
REMARK   89  A    between atoms: _211  and  _214
REMARK   90  A    between atoms: _217  and  _219
REMARK   91  A    between atoms: _219  and  _220
REMARK   92  A    between atoms: _219  and  _222
REMARK   93  A    between atoms: _222  and  _223
REMARK   94  A    between atoms: _223  and  _224
REMARK   95  A    between atoms: _224  and  _225
REMARK   96  A    between atoms: _225  and  _226
REMARK   97  A    between atoms: _230  and  _232
REMARK   98  A    between atoms: _232  and  _233
REMARK   99  A    between atoms: _232  and  _235
REMARK  100  A    between atoms: _235  and  _236
REMARK  101  A    between atoms: _236  and  _237
REMARK  102  A    between atoms: _240  and  _242
REMARK  103  A    between atoms: _242  and  _243
REMARK  104  A    between atoms: _242  and  _245
REMARK  105  A    between atoms: _245  and  _246
REMARK  106  A    between atoms: _251  and  _253
REMARK  107  A    between atoms: _253  and  _254
REMARK  108  A    between atoms: _253  and  _256
REMARK  109  A    between atoms: _256  and  _257
REMARK  110  A    between atoms: _257  and  _258
REMARK  111  A    between atoms: _258  and  _259
REMARK  112  A    between atoms: _268  and  _270
REMARK  113  A    between atoms: _270  and  _271
REMARK  114  A    between atoms: _270  and  _273
REMARK  115  A    between atoms: _273  and  _274
REMARK  116  A    between atoms: _274  and  _275
REMARK  117  A    between atoms: _275  and  _276
REMARK  118  A    between atoms: _285  and  _287
REMARK  119  A    between atoms: _287  and  _288
REMARK  120  A    between atoms: _287  and  _290
REMARK  121  A    between atoms: _290  and  _291
REMARK  122  A    between atoms: _294  and  _296
REMARK  123  A    between atoms: _296  and  _297
REMARK  124  A    between atoms: _296  and  _299
REMARK  125  A    between atoms: _299  and  _300
REMARK  126  A    between atoms: _305  and  _306
REMARK  127  A    between atoms: _308  and  _310
REMARK  128  A    between atoms: _310  and  _311
REMARK  129  A    between atoms: _314  and  _316
REMARK  130  A    between atoms: _316  and  _317
REMARK  131  A    between atoms: _316  and  _319
REMARK  132  A    between atoms: _319  and  _320
REMARK  133  A    between atoms: _320  and  _321
REMARK  134  A    between atoms: _323  and  _325
REMARK  135  A    between atoms: _325  and  _326
REMARK  136  A    between atoms: _325  and  _328
REMARK  137  A    between atoms: _328  and  _329
REMARK                            x       y       z     vdW  Elec       q    Type
REMARK                         _______ _______ _______ _____ _____    ______ ____
ROOT
ATOM      1  O   HOH     1     -14.368  -9.398   9.106  0.00  0.00    +0.000 OA
ENDROOT
TORSDOF 0
REMARK  Name = ../refined-set-2016/4j74/4j74_pocket.pdb
REMARK  137 active torsions:
REMARK  status: ('A' for Active; 'I' for Inactive)
REMARK    1  A    between atoms: _1  and  _3
REMARK    2  A    between atoms: _3  and  _4
REMARK    3  A    between atoms: _3  and  _6
REMARK    4  A    between atoms: _6  and  _7
REMARK    5  A    between atoms: _7  and  _8
REMARK    6  A    between atoms: _10  and  _12
REMARK    7  A    between atoms: _12  and  _13
REMARK    8  A    between atoms: _12  and  _15
REMARK    9  A    between atoms: _15  and  _16
REMARK   10  A    between atoms: _16  and  _17
REMARK   11  A    between atoms: _17  and  _18
REMARK   12  A    between atoms: _18  and  _19
REMARK   13  A    between atoms: _23  and  _25
REMARK   14  A    between atoms: _25  and  _26
REMARK   15  A    between atoms: _25  and  _28
REMARK   16  A    between atoms: _31  and  _33
REMARK   17  A    between atoms: _33  and  _34
REMARK   18  A    between atoms: _33  and  _36
REMARK   19  A    between atoms: _36  and  _37
REMARK   20  A    between atoms: _40  and  _42
REMARK   21  A    between atoms: _42  and  _43
REMARK   22  A    between atoms: _42  and  _45
REMARK   23  A    between atoms: _45  and  _46
REMARK   24  A    between atoms: _51  and  _52
REMARK   25  A    between atoms: _54  and  _56
REMARK   26  A    between atoms: _56  and  _57
REMARK   27  A    between atoms: _56  and  _59
REMARK   28  A    between atoms: _59  and  _60
REMARK   29  A    between atoms: _65  and  _67
REMARK   30  A    between atoms: _67  and  _68
REMARK   31  A    between atoms: _67  and  _70
REMARK   32  A    between atoms: _70  and  _71
REMARK   33  A    between atoms: _74  and  _76
REMARK   34  A    between atoms: _76  and  _77
REMARK   35  A    between atoms: _79  and  _81
REMARK   36  A    between atoms: _81  and  _82
REMARK   37  A    between atoms: _81  and  _84
REMARK   38  A    between atoms: _84  and  _85
REMARK   39  A    between atoms: _85  and  _86
REMARK   40  A    between atoms: _91  and  _93
REMARK   41  A    between atoms: _93  and  _94
REMARK   42  A    between atoms: _93  and  _96
REMARK   43  A    between atoms: _96  and  _97
REMARK   44  A    between atoms: _102  and  _103
REMARK   45  A    between atoms: _105  and  _107
REMARK   46  A    between atoms: _107  and  _108
REMARK   47  A    between atoms: _107  and  _110
REMARK   48  A    between atoms: _110  and  _111
REMARK   49  A    between atoms: _114  and  _116
REMARK   50  A    between atoms: _116  and  _117
REMARK   51  A    between atoms: _116  and  _119
REMARK   52  A    between atoms: _119  and  _120
REMARK   53  A    between atoms: _120  and  _121
REMARK   54  A    between atoms: _123  and  _125
REMARK   55  A    between atoms: _125  and  _126
REMARK   56  A    between atoms: _125  and  _128
REMARK   57  A    between atoms: _128  and  _129
REMARK   58  A    between atoms: _134  and  _135
REMARK   59  A    between atoms: _137  and  _139
REMARK   60  A    between atoms: _139  and  _140
REMARK   61  A    between atoms: _139  and  _142
REMARK   62  A    between atoms: _142  and  _143
REMARK   63  A    between atoms: _143  and  _144
REMARK   64  A    between atoms: _149  and  _151
REMARK   65  A    between atoms: _151  and  _152
REMARK   66  A    between atoms: _151  and  _154
REMARK   67  A    between atoms: _154  and  _155
REMARK   68  A    between atoms: _160  and  _162
REMARK   69  A    between atoms: _162  and  _163
REMARK   70  A    between atoms: _162  and  _165
REMARK   71  A    between atoms: _168  and  _170
REMARK   72  A    between atoms: _170  and  _171
REMARK   73  A    between atoms: _170  and  _173
REMARK   74  A    between atoms: _173  and  _174
REMARK   75  A    between atoms: _177  and  _179
REMARK   76  A    between atoms: _179  and  _180
REMARK   77  A    between atoms: _179  and  _182
REMARK   78  A    between atoms: _182  and  _183
REMARK   79  A    between atoms: _189  and  _191
REMARK   80  A    between atoms: _191  and  _192
REMARK   81  A    between atoms: _191  and  _194
REMARK   82  A    between atoms: _194  and  _195
REMARK   83  A    between atoms: _201  and  _203
REMARK   84  A    between atoms: _203  and  _204
REMARK   85  A    between atoms: _203  and  _206
REMARK   86  A    between atoms: _206  and  _207
REMARK   87  A    between atoms: _209  and  _211
REMARK   88  A    between atoms: _211  and  _212
REMARK   89  A    between atoms: _211  and  _214
REMARK   90  A    between atoms: _217  and  _219
REMARK   91  A    between atoms: _219  and  _220
REMARK   92  A    between atoms: _219  and  _222
REMARK   93  A    between atoms: _222  and  _223
REMARK   94  A    between atoms: _223  and  _224
REMARK   95  A    between atoms: _224  and  _225
REMARK   96  A    between atoms: _225  and  _226
REMARK   97  A    between atoms: _230  and  _232
REMARK   98  A    between atoms: _232  and  _233
REMARK   99  A    between atoms: _232  and  _235
REMARK  100  A    between atoms: _235  and  _236
REMARK  101  A    between atoms: _236  and  _237
REMARK  102  A    between atoms: _240  and  _242
REMARK  103  A    between atoms: _242  and  _243
REMARK  104  A    between atoms: _242  and  _245
REMARK  105  A    between atoms: _245  and  _246
REMARK  106  A    between atoms: _251  and  _253
REMARK  107  A    between atoms: _253  and  _254
REMARK  108  A    between atoms: _253  and  _256
REMARK  109  A    between atoms: _256  and  _257
REMARK  110  A    between atoms: _257  and  _258
REMARK  111  A    between atoms: _258  and  _259
REMARK  112  A    between atoms: _268  and  _270
REMARK  113  A    between atoms: _270  and  _271
REMARK  114  A    between atoms: _270  and  _273
REMARK  115  A    between atoms: _273  and  _274
REMARK  116  A    between atoms: _274  and  _275
REMARK  117  A    between atoms: _275  and  _276
REMARK  118  A    between atoms: _285  and  _287
REMARK  119  A    between atoms: _287  and  _288
REMARK  120  A    between atoms: _287  and  _290
REMARK  121  A    between atoms: _290  and  _291
REMARK  122  A    between atoms: _294  and  _296
REMARK  123  A    between atoms: _296  and  _297
REMARK  124  A    between atoms: _296  and  _299
REMARK  125  A    between atoms: _299  and  _300
REMARK  126  A    between atoms: _305  and  _306
REMARK  127  A    between atoms: _308  and  _310
REMARK  128  A    between atoms: _310  and  _311
REMARK  129  A    between atoms: _314  and  _316
REMARK  130  A    between atoms: _316  and  _317
REMARK  131  A    between atoms: _316  and  _319
REMARK  132  A    between atoms: _319  and  _320
REMARK  133  A    between atoms: _320  and  _321
REMARK  134  A    between atoms: _323  and  _325
REMARK  135  A    between atoms: _325  and  _326
REMARK  136  A    between atoms: _325  and  _328
REMARK  137  A    between atoms: _328  and  _329
REMARK                            x       y       z     vdW  Elec       q    Type
REMARK                         _______ _______ _______ _____ _____    ______ ____
ROOT
ATOM      1  O   HOH     1     -13.138  -6.707   1.195  0.00  0.00    +0.000 OA
ENDROOT
TORSDOF 0
REMARK  Name = ../refined-set-2016/4j74/4j74_pocket.pdb
REMARK  137 active torsions:
REMARK  status: ('A' for Active; 'I' for Inactive)
REMARK    1  A    between atoms: _1  and  _3
REMARK    2  A    between atoms: _3  and  _4
REMARK    3  A    between atoms: _3  and  _6
REMARK    4  A    between atoms: _6  and  _7
REMARK    5  A    between atoms: _7  and  _8
REMARK    6  A    between atoms: _10  and  _12
REMARK    7  A    between atoms: _12  and  _13
REMARK    8  A    between atoms: _12  and  _15
REMARK    9  A    between atoms: _15  and  _16
REMARK   10  A    between atoms: _16  and  _17
REMARK   11  A    between atoms: _17  and  _18
REMARK   12  A    between atoms: _18  and  _19
REMARK   13  A    between atoms: _23  and  _25
REMARK   14  A    between atoms: _25  and  _26
REMARK   15  A    between atoms: _25  and  _28
REMARK   16  A    between atoms: _31  and  _33
REMARK   17  A    between atoms: _33  and  _34
REMARK   18  A    between atoms: _33  and  _36
REMARK   19  A    between atoms: _36  and  _37
REMARK   20  A    between atoms: _40  and  _42
REMARK   21  A    between atoms: _42  and  _43
REMARK   22  A    between atoms: _42  and  _45
REMARK   23  A    between atoms: _45  and  _46
REMARK   24  A    between atoms: _51  and  _52
REMARK   25  A    between atoms: _54  and  _56
REMARK   26  A    between atoms: _56  and  _57
REMARK   27  A    between atoms: _56  and  _59
REMARK   28  A    between atoms: _59  and  _60
REMARK   29  A    between atoms: _65  and  _67
REMARK   30  A    between atoms: _67  and  _68
REMARK   31  A    between atoms: _67  and  _70
REMARK   32  A    between atoms: _70  and  _71
REMARK   33  A    between atoms: _74  and  _76
REMARK   34  A    between atoms: _76  and  _77
REMARK   35  A    between atoms: _79  and  _81
REMARK   36  A    between atoms: _81  and  _82
REMARK   37  A    between atoms: _81  and  _84
REMARK   38  A    between atoms: _84  and  _85
REMARK   39  A    between atoms: _85  and  _86
REMARK   40  A    between atoms: _91  and  _93
REMARK   41  A    between atoms: _93  and  _94
REMARK   42  A    between atoms: _93  and  _96
REMARK   43  A    between atoms: _96  and  _97
REMARK   44  A    between atoms: _102  and  _103
REMARK   45  A    between atoms: _105  and  _107
REMARK   46  A    between atoms: _107  and  _108
REMARK   47  A    between atoms: _107  and  _110
REMARK   48  A    between atoms: _110  and  _111
REMARK   49  A    between atoms: _114  and  _116
REMARK   50  A    between atoms: _116  and  _117
REMARK   51  A    between atoms: _116  and  _119
REMARK   52  A    between atoms: _119  and  _120
REMARK   53  A    between atoms: _120  and  _121
REMARK   54  A    between atoms: _123  and  _125
REMARK   55  A    between atoms: _125  and  _126
REMARK   56  A    between atoms: _125  and  _128
REMARK   57  A    between atoms: _128  and  _129
REMARK   58  A    between atoms: _134  and  _135
REMARK   59  A    between atoms: _137  and  _139
REMARK   60  A    between atoms: _139  and  _140
REMARK   61  A    between atoms: _139  and  _142
REMARK   62  A    between atoms: _142  and  _143
REMARK   63  A    between atoms: _143  and  _144
REMARK   64  A    between atoms: _149  and  _151
REMARK   65  A    between atoms: _151  and  _152
REMARK   66  A    between atoms: _151  and  _154
REMARK   67  A    between atoms: _154  and  _155
REMARK   68  A    between atoms: _160  and  _162
REMARK   69  A    between atoms: _162  and  _163
REMARK   70  A    between atoms: _162  and  _165
REMARK   71  A    between atoms: _168  and  _170
REMARK   72  A    between atoms: _170  and  _171
REMARK   73  A    between atoms: _170  and  _173
REMARK   74  A    between atoms: _173  and  _174
REMARK   75  A    between atoms: _177  and  _179
REMARK   76  A    between atoms: _179  and  _180
REMARK   77  A    between atoms: _179  and  _182
REMARK   78  A    between atoms: _182  and  _183
REMARK   79  A    between atoms: _189  and  _191
REMARK   80  A    between atoms: _191  and  _192
REMARK   81  A    between atoms: _191  and  _194
REMARK   82  A    between atoms: _194  and  _195
REMARK   83  A    between atoms: _201  and  _203
REMARK   84  A    between atoms: _203  and  _204
REMARK   85  A    between atoms: _203  and  _206
REMARK   86  A    between atoms: _206  and  _207
REMARK   87  A    between atoms: _209  and  _211
REMARK   88  A    between atoms: _211  and  _212
REMARK   89  A    between atoms: _211  and  _214
REMARK   90  A    between atoms: _217  and  _219
REMARK   91  A    between atoms: _219  and  _220
REMARK   92  A    between atoms: _219  and  _222
REMARK   93  A    between atoms: _222  and  _223
REMARK   94  A    between atoms: _223  and  _224
REMARK   95  A    between atoms: _224  and  _225
REMARK   96  A    between atoms: _225  and  _226
REMARK   97  A    between atoms: _230  and  _232
REMARK   98  A    between atoms: _232  and  _233
REMARK   99  A    between atoms: _232  and  _235
REMARK  100  A    between atoms: _235  and  _236
REMARK  101  A    between atoms: _236  and  _237
REMARK  102  A    between atoms: _240  and  _242
REMARK  103  A    between atoms: _242  and  _243
REMARK  104  A    between atoms: _242  and  _245
REMARK  105  A    between atoms: _245  and  _246
REMARK  106  A    between atoms: _251  and  _253
REMARK  107  A    between atoms: _253  and  _254
REMARK  108  A    between atoms: _253  and  _256
REMARK  109  A    between atoms: _256  and  _257
REMARK  110  A    between atoms: _257  and  _258
REMARK  111  A    between atoms: _258  and  _259
REMARK  112  A    between atoms: _268  and  _270
REMARK  113  A    between atoms: _270  and  _271
REMARK  114  A    between atoms: _270  and  _273
REMARK  115  A    between atoms: _273  and  _274
REMARK  116  A    between atoms: _274  and  _275
REMARK  117  A    between atoms: _275  and  _276
REMARK  118  A    between atoms: _285  and  _287
REMARK  119  A    between atoms: _287  and  _288
REMARK  120  A    between atoms: _287  and  _290
REMARK  121  A    between atoms: _290  and  _291
REMARK  122  A    between atoms: _294  and  _296
REMARK  123  A    between atoms: _296  and  _297
REMARK  124  A    between atoms: _296  and  _299
REMARK  125  A    between atoms: _299  and  _300
REMARK  126  A    between atoms: _305  and  _306
REMARK  127  A    between atoms: _308  and  _310
REMARK  128  A    between atoms: _310  and  _311
REMARK  129  A    between atoms: _314  and  _316
REMARK  130  A    between atoms: _316  and  _317
REMARK  131  A    between atoms: _316  and  _319
REMARK  132  A    between atoms: _319  and  _320
REMARK  133  A    between atoms: _320  and  _321
REMARK  134  A    between atoms: _323  and  _325
REMARK  135  A    between atoms: _325  and  _326
REMARK  136  A    between atoms: _325  and  _328
REMARK  137  A    between atoms: _328  and  _329
REMARK                            x       y       z     vdW  Elec       q    Type
REMARK                         _______ _______ _______ _____ _____    ______ ____
ROOT
ATOM      1  O   HOH     1     -18.275 -12.595  10.296  0.00  0.00    +0.000 OA
ENDROOT
TORSDOF 0
REMARK  Name = ../refined-set-2016/4j74/4j74_pocket.pdb
REMARK  137 active torsions:
REMARK  status: ('A' for Active; 'I' for Inactive)
REMARK    1  A    between atoms: _1  and  _3
REMARK    2  A    between atoms: _3  and  _4
REMARK    3  A    between atoms: _3  and  _6
REMARK    4  A    between atoms: _6  and  _7
REMARK    5  A    between atoms: _7  and  _8
REMARK    6  A    between atoms: _10  and  _12
REMARK    7  A    between atoms: _12  and  _13
REMARK    8  A    between atoms: _12  and  _15
REMARK    9  A    between atoms: _15  and  _16
REMARK   10  A    between atoms: _16  and  _17
REMARK   11  A    between atoms: _17  and  _18
REMARK   12  A    between atoms: _18  and  _19
REMARK   13  A    between atoms: _23  and  _25
REMARK   14  A    between atoms: _25  and  _26
REMARK   15  A    between atoms: _25  and  _28
REMARK   16  A    between atoms: _31  and  _33
REMARK   17  A    between atoms: _33  and  _34
REMARK   18  A    between atoms: _33  and  _36
REMARK   19  A    between atoms: _36  and  _37
REMARK   20  A    between atoms: _40  and  _42
REMARK   21  A    between atoms: _42  and  _43
REMARK   22  A    between atoms: _42  and  _45
REMARK   23  A    between atoms: _45  and  _46
REMARK   24  A    between atoms: _51  and  _52
REMARK   25  A    between atoms: _54  and  _56
REMARK   26  A    between atoms: _56  and  _57
REMARK   27  A    between atoms: _56  and  _59
REMARK   28  A    between atoms: _59  and  _60
REMARK   29  A    between atoms: _65  and  _67
REMARK   30  A    between atoms: _67  and  _68
REMARK   31  A    between atoms: _67  and  _70
REMARK   32  A    between atoms: _70  and  _71
REMARK   33  A    between atoms: _74  and  _76
REMARK   34  A    between atoms: _76  and  _77
REMARK   35  A    between atoms: _79  and  _81
REMARK   36  A    between atoms: _81  and  _82
REMARK   37  A    between atoms: _81  and  _84
REMARK   38  A    between atoms: _84  and  _85
REMARK   39  A    between atoms: _85  and  _86
REMARK   40  A    between atoms: _91  and  _93
REMARK   41  A    between atoms: _93  and  _94
REMARK   42  A    between atoms: _93  and  _96
REMARK   43  A    between atoms: _96  and  _97
REMARK   44  A    between atoms: _102  and  _103
REMARK   45  A    between atoms: _105  and  _107
REMARK   46  A    between atoms: _107  and  _108
REMARK   47  A    between atoms: _107  and  _110
REMARK   48  A    between atoms: _110  and  _111
REMARK   49  A    between atoms: _114  and  _116
REMARK   50  A    between atoms: _116  and  _117
REMARK   51  A    between atoms: _116  and  _119
REMARK   52  A    between atoms: _119  and  _120
REMARK   53  A    between atoms: _120  and  _121
REMARK   54  A    between atoms: _123  and  _125
REMARK   55  A    between atoms: _125  and  _126
REMARK   56  A    between atoms: _125  and  _128
REMARK   57  A    between atoms: _128  and  _129
REMARK   58  A    between atoms: _134  and  _135
REMARK   59  A    between atoms: _137  and  _139
REMARK   60  A    between atoms: _139  and  _140
REMARK   61  A    between atoms: _139  and  _142
REMARK   62  A    between atoms: _142  and  _143
REMARK   63  A    between atoms: _143  and  _144
REMARK   64  A    between atoms: _149  and  _151
REMARK   65  A    between atoms: _151  and  _152
REMARK   66  A    between atoms: _151  and  _154
REMARK   67  A    between atoms: _154  and  _155
REMARK   68  A    between atoms: _160  and  _162
REMARK   69  A    between atoms: _162  and  _163
REMARK   70  A    between atoms: _162  and  _165
REMARK   71  A    between atoms: _168  and  _170
REMARK   72  A    between atoms: _170  and  _171
REMARK   73  A    between atoms: _170  and  _173
REMARK   74  A    between atoms: _173  and  _174
REMARK   75  A    between atoms: _177  and  _179
REMARK   76  A    between atoms: _179  and  _180
REMARK   77  A    between atoms: _179  and  _182
REMARK   78  A    between atoms: _182  and  _183
REMARK   79  A    between atoms: _189  and  _191
REMARK   80  A    between atoms: _191  and  _192
REMARK   81  A    between atoms: _191  and  _194
REMARK   82  A    between atoms: _194  and  _195
REMARK   83  A    between atoms: _201  and  _203
REMARK   84  A    between atoms: _203  and  _204
REMARK   85  A    between atoms: _203  and  _206
REMARK   86  A    between atoms: _206  and  _207
REMARK   87  A    between atoms: _209  and  _211
REMARK   88  A    between atoms: _211  and  _212
REMARK   89  A    between atoms: _211  and  _214
REMARK   90  A    between atoms: _217  and  _219
REMARK   91  A    between atoms: _219  and  _220
REMARK   92  A    between atoms: _219  and  _222
REMARK   93  A    between atoms: _222  and  _223
REMARK   94  A    between atoms: _223  and  _224
REMARK   95  A    between atoms: _224  and  _225
REMARK   96  A    between atoms: _225  and  _226
REMARK   97  A    between atoms: _230  and  _232
REMARK   98  A    between atoms: _232  and  _233
REMARK   99  A    between atoms: _232  and  _235
REMARK  100  A    between atoms: _235  and  _236
REMARK  101  A    between atoms: _236  and  _237
REMARK  102  A    between atoms: _240  and  _242
REMARK  103  A    between atoms: _242  and  _243
REMARK  104  A    between atoms: _242  and  _245
REMARK  105  A    between atoms: _245  and  _246
REMARK  106  A    between atoms: _251  and  _253
REMARK  107  A    between atoms: _253  and  _254
REMARK  108  A    between atoms: _253  and  _256
REMARK  109  A    between atoms: _256  and  _257
REMARK  110  A    between atoms: _257  and  _258
REMARK  111  A    between atoms: _258  and  _259
REMARK  112  A    between atoms: _268  and  _270
REMARK  113  A    between atoms: _270  and  _271
REMARK  114  A    between atoms: _270  and  _273
REMARK  115  A    between atoms: _273  and  _274
REMARK  116  A    between atoms: _274  and  _275
REMARK  117  A    between atoms: _275  and  _276
REMARK  118  A    between atoms: _285  and  _287
REMARK  119  A    between atoms: _287  and  _288
REMARK  120  A    between atoms: _287  and  _290
REMARK  121  A    between atoms: _290  and  _291
REMARK  122  A    between atoms: _294  and  _296
REMARK  123  A    between atoms: _296  and  _297
REMARK  124  A    between atoms: _296  and  _299
REMARK  125  A    between atoms: _299  and  _300
REMARK  126  A    between atoms: _305  and  _306
REMARK  127  A    between atoms: _308  and  _310
REMARK  128  A    between atoms: _310  and  _311
REMARK  129  A    between atoms: _314  and  _316
REMARK  130  A    between atoms: _316  and  _317
REMARK  131  A    between atoms: _316  and  _319
REMARK  132  A    between atoms: _319  and  _320
REMARK  133  A    between atoms: _320  and  _321
REMARK  134  A    between atoms: _323  and  _325
REMARK  135  A    between atoms: _325  and  _326
REMARK  136  A    between atoms: _325  and  _328
REMARK  137  A    between atoms: _328  and  _329
REMARK                            x       y       z     vdW  Elec       q    Type
REMARK                         _______ _______ _______ _____ _____    ______ ____
ROOT
ATOM      1  O   HOH     1     -17.639 -10.320   6.122  0.00  0.00    +0.000 OA
ENDROOT
TORSDOF 0
REMARK  Name = ../refined-set-2016/4j74/4j74_pocket.pdb
REMARK  137 active torsions:
REMARK  status: ('A' for Active; 'I' for Inactive)
REMARK    1  A    between atoms: _1  and  _3
REMARK    2  A    between atoms: _3  and  _4
REMARK    3  A    between atoms: _3  and  _6
REMARK    4  A    between atoms: _6  and  _7
REMARK    5  A    between atoms: _7  and  _8
REMARK    6  A    between atoms: _10  and  _12
REMARK    7  A    between atoms: _12  and  _13
REMARK    8  A    between atoms: _12  and  _15
REMARK    9  A    between atoms: _15  and  _16
REMARK   10  A    between atoms: _16  and  _17
REMARK   11  A    between atoms: _17  and  _18
REMARK   12  A    between atoms: _18  and  _19
REMARK   13  A    between atoms: _23  and  _25
REMARK   14  A    between atoms: _25  and  _26
REMARK   15  A    between atoms: _25  and  _28
REMARK   16  A    between atoms: _31  and  _33
REMARK   17  A    between atoms: _33  and  _34
REMARK   18  A    between atoms: _33  and  _36
REMARK   19  A    between atoms: _36  and  _37
REMARK   20  A    between atoms: _40  and  _42
REMARK   21  A    between atoms: _42  and  _43
REMARK   22  A    between atoms: _42  and  _45
REMARK   23  A    between atoms: _45  and  _46
REMARK   24  A    between atoms: _51  and  _52
REMARK   25  A    between atoms: _54  and  _56
REMARK   26  A    between atoms: _56  and  _57
REMARK   27  A    between atoms: _56  and  _59
REMARK   28  A    between atoms: _59  and  _60
REMARK   29  A    between atoms: _65  and  _67
REMARK   30  A    between atoms: _67  and  _68
REMARK   31  A    between atoms: _67  and  _70
REMARK   32  A    between atoms: _70  and  _71
REMARK   33  A    between atoms: _74  and  _76
REMARK   34  A    between atoms: _76  and  _77
REMARK   35  A    between atoms: _79  and  _81
REMARK   36  A    between atoms: _81  and  _82
REMARK   37  A    between atoms: _81  and  _84
REMARK   38  A    between atoms: _84  and  _85
REMARK   39  A    between atoms: _85  and  _86
REMARK   40  A    between atoms: _91  and  _93
REMARK   41  A    between atoms: _93  and  _94
REMARK   42  A    between atoms: _93  and  _96
REMARK   43  A    between atoms: _96  and  _97
REMARK   44  A    between atoms: _102  and  _103
REMARK   45  A    between atoms: _105  and  _107
REMARK   46  A    between atoms: _107  and  _108
REMARK   47  A    between atoms: _107  and  _110
REMARK   48  A    between atoms: _110  and  _111
REMARK   49  A    between atoms: _114  and  _116
REMARK   50  A    between atoms: _116  and  _117
REMARK   51  A    between atoms: _116  and  _119
REMARK   52  A    between atoms: _119  and  _120
REMARK   53  A    between atoms: _120  and  _121
REMARK   54  A    between atoms: _123  and  _125
REMARK   55  A    between atoms: _125  and  _126
REMARK   56  A    between atoms: _125  and  _128
REMARK   57  A    between atoms: _128  and  _129
REMARK   58  A    between atoms: _134  and  _135
REMARK   59  A    between atoms: _137  and  _139
REMARK   60  A    between atoms: _139  and  _140
REMARK   61  A    between atoms: _139  and  _142
REMARK   62  A    between atoms: _142  and  _143
REMARK   63  A    between atoms: _143  and  _144
REMARK   64  A    between atoms: _149  and  _151
REMARK   65  A    between atoms: _151  and  _152
REMARK   66  A    between atoms: _151  and  _154
REMARK   67  A    between atoms: _154  and  _155
REMARK   68  A    between atoms: _160  and  _162
REMARK   69  A    between atoms: _162  and  _163
REMARK   70  A    between atoms: _162  and  _165
REMARK   71  A    between atoms: _168  and  _170
REMARK   72  A    between atoms: _170  and  _171
REMARK   73  A    between atoms: _170  and  _173
REMARK   74  A    between atoms: _173  and  _174
REMARK   75  A    between atoms: _177  and  _179
REMARK   76  A    between atoms: _179  and  _180
REMARK   77  A    between atoms: _179  and  _182
REMARK   78  A    between atoms: _182  and  _183
REMARK   79  A    between atoms: _189  and  _191
REMARK   80  A    between atoms: _191  and  _192
REMARK   81  A    between atoms: _191  and  _194
REMARK   82  A    between atoms: _194  and  _195
REMARK   83  A    between atoms: _201  and  _203
REMARK   84  A    between atoms: _203  and  _204
REMARK   85  A    between atoms: _203  and  _206
REMARK   86  A    between atoms: _206  and  _207
REMARK   87  A    between atoms: _209  and  _211
REMARK   88  A    between atoms: _211  and  _212
REMARK   89  A    between atoms: _211  and  _214
REMARK   90  A    between atoms: _217  and  _219
REMARK   91  A    between atoms: _219  and  _220
REMARK   92  A    between atoms: _219  and  _222
REMARK   93  A    between atoms: _222  and  _223
REMARK   94  A    between atoms: _223  and  _224
REMARK   95  A    between atoms: _224  and  _225
REMARK   96  A    between atoms: _225  and  _226
REMARK   97  A    between atoms: _230  and  _232
REMARK   98  A    between atoms: _232  and  _233
REMARK   99  A    between atoms: _232  and  _235
REMARK  100  A    between atoms: _235  and  _236
REMARK  101  A    between atoms: _236  and  _237
REMARK  102  A    between atoms: _240  and  _242
REMARK  103  A    between atoms: _242  and  _243
REMARK  104  A    between atoms: _242  and  _245
REMARK  105  A    between atoms: _245  and  _246
REMARK  106  A    between atoms: _251  and  _253
REMARK  107  A    between atoms: _253  and  _254
REMARK  108  A    between atoms: _253  and  _256
REMARK  109  A    between atoms: _256  and  _257
REMARK  110  A    between atoms: _257  and  _258
REMARK  111  A    between atoms: _258  and  _259
REMARK  112  A    between atoms: _268  and  _270
REMARK  113  A    between atoms: _270  and  _271
REMARK  114  A    between atoms: _270  and  _273
REMARK  115  A    between atoms: _273  and  _274
REMARK  116  A    between atoms: _274  and  _275
REMARK  117  A    between atoms: _275  and  _276
REMARK  118  A    between atoms: _285  and  _287
REMARK  119  A    between atoms: _287  and  _288
REMARK  120  A    between atoms: _287  and  _290
REMARK  121  A    between atoms: _290  and  _291
REMARK  122  A    between atoms: _294  and  _296
REMARK  123  A    between atoms: _296  and  _297
REMARK  124  A    between atoms: _296  and  _299
REMARK  125  A    between atoms: _299  and  _300
REMARK  126  A    between atoms: _305  and  _306
REMARK  127  A    between atoms: _308  and  _310
REMARK  128  A    between atoms: _310  and  _311
REMARK  129  A    between atoms: _314  and  _316
REMARK  130  A    between atoms: _316  and  _317
REMARK  131  A    between atoms: _316  and  _319
REMARK  132  A    between atoms: _319  and  _320
REMARK  133  A    between atoms: _320  and  _321
REMARK  134  A    between atoms: _323  and  _325
REMARK  135  A    between atoms: _325  and  _326
REMARK  136  A    between atoms: _325  and  _328
REMARK  137  A    between atoms: _328  and  _329
REMARK                            x       y       z     vdW  Elec       q    Type
REMARK                         _______ _______ _______ _____ _____    ______ ____
ROOT
ATOM      1  O   HOH     1      -9.605  -4.180   2.032  0.00  0.00    +0.000 OA
ENDROOT
TORSDOF 0
REMARK  Name = ../refined-set-2016/4j74/4j74_pocket.pdb
REMARK  137 active torsions:
REMARK  status: ('A' for Active; 'I' for Inactive)
REMARK    1  A    between atoms: _1  and  _3
REMARK    2  A    between atoms: _3  and  _4
REMARK    3  A    between atoms: _3  and  _6
REMARK    4  A    between atoms: _6  and  _7
REMARK    5  A    between atoms: _7  and  _8
REMARK    6  A    between atoms: _10  and  _12
REMARK    7  A    between atoms: _12  and  _13
REMARK    8  A    between atoms: _12  and  _15
REMARK    9  A    between atoms: _15  and  _16
REMARK   10  A    between atoms: _16  and  _17
REMARK   11  A    between atoms: _17  and  _18
REMARK   12  A    between atoms: _18  and  _19
REMARK   13  A    between atoms: _23  and  _25
REMARK   14  A    between atoms: _25  and  _26
REMARK   15  A    between atoms: _25  and  _28
REMARK   16  A    between atoms: _31  and  _33
REMARK   17  A    between atoms: _33  and  _34
REMARK   18  A    between atoms: _33  and  _36
REMARK   19  A    between atoms: _36  and  _37
REMARK   20  A    between atoms: _40  and  _42
REMARK   21  A    between atoms: _42  and  _43
REMARK   22  A    between atoms: _42  and  _45
REMARK   23  A    between atoms: _45  and  _46
REMARK   24  A    between atoms: _51  and  _52
REMARK   25  A    between atoms: _54  and  _56
REMARK   26  A    between atoms: _56  and  _57
REMARK   27  A    between atoms: _56  and  _59
REMARK   28  A    between atoms: _59  and  _60
REMARK   29  A    between atoms: _65  and  _67
REMARK   30  A    between atoms: _67  and  _68
REMARK   31  A    between atoms: _67  and  _70
REMARK   32  A    between atoms: _70  and  _71
REMARK   33  A    between atoms: _74  and  _76
REMARK   34  A    between atoms: _76  and  _77
REMARK   35  A    between atoms: _79  and  _81
REMARK   36  A    between atoms: _81  and  _82
REMARK   37  A    between atoms: _81  and  _84
REMARK   38  A    between atoms: _84  and  _85
REMARK   39  A    between atoms: _85  and  _86
REMARK   40  A    between atoms: _91  and  _93
REMARK   41  A    between atoms: _93  and  _94
REMARK   42  A    between atoms: _93  and  _96
REMARK   43  A    between atoms: _96  and  _97
REMARK   44  A    between atoms: _102  and  _103
REMARK   45  A    between atoms: _105  and  _107
REMARK   46  A    between atoms: _107  and  _108
REMARK   47  A    between atoms: _107  and  _110
REMARK   48  A    between atoms: _110  and  _111
REMARK   49  A    between atoms: _114  and  _116
REMARK   50  A    between atoms: _116  and  _117
REMARK   51  A    between atoms: _116  and  _119
REMARK   52  A    between atoms: _119  and  _120
REMARK   53  A    between atoms: _120  and  _121
REMARK   54  A    between atoms: _123  and  _125
REMARK   55  A    between atoms: _125  and  _126
REMARK   56  A    between atoms: _125  and  _128
REMARK   57  A    between atoms: _128  and  _129
REMARK   58  A    between atoms: _134  and  _135
REMARK   59  A    between atoms: _137  and  _139
REMARK   60  A    between atoms: _139  and  _140
REMARK   61  A    between atoms: _139  and  _142
REMARK   62  A    between atoms: _142  and  _143
REMARK   63  A    between atoms: _143  and  _144
REMARK   64  A    between atoms: _149  and  _151
REMARK   65  A    between atoms: _151  and  _152
REMARK   66  A    between atoms: _151  and  _154
REMARK   67  A    between atoms: _154  and  _155
REMARK   68  A    between atoms: _160  and  _162
REMARK   69  A    between atoms: _162  and  _163
REMARK   70  A    between atoms: _162  and  _165
REMARK   71  A    between atoms: _168  and  _170
REMARK   72  A    between atoms: _170  and  _171
REMARK   73  A    between atoms: _170  and  _173
REMARK   74  A    between atoms: _173  and  _174
REMARK   75  A    between atoms: _177  and  _179
REMARK   76  A    between atoms: _179  and  _180
REMARK   77  A    between atoms: _179  and  _182
REMARK   78  A    between atoms: _182  and  _183
REMARK   79  A    between atoms: _189  and  _191
REMARK   80  A    between atoms: _191  and  _192
REMARK   81  A    between atoms: _191  and  _194
REMARK   82  A    between atoms: _194  and  _195
REMARK   83  A    between atoms: _201  and  _203
REMARK   84  A    between atoms: _203  and  _204
REMARK   85  A    between atoms: _203  and  _206
REMARK   86  A    between atoms: _206  and  _207
REMARK   87  A    between atoms: _209  and  _211
REMARK   88  A    between atoms: _211  and  _212
REMARK   89  A    between atoms: _211  and  _214
REMARK   90  A    between atoms: _217  and  _219
REMARK   91  A    between atoms: _219  and  _220
REMARK   92  A    between atoms: _219  and  _222
REMARK   93  A    between atoms: _222  and  _223
REMARK   94  A    between atoms: _223  and  _224
REMARK   95  A    between atoms: _224  and  _225
REMARK   96  A    between atoms: _225  and  _226
REMARK   97  A    between atoms: _230  and  _232
REMARK   98  A    between atoms: _232  and  _233
REMARK   99  A    between atoms: _232  and  _235
REMARK  100  A    between atoms: _235  and  _236
REMARK  101  A    between atoms: _236  and  _237
REMARK  102  A    between atoms: _240  and  _242
REMARK  103  A    between atoms: _242  and  _243
REMARK  104  A    between atoms: _242  and  _245
REMARK  105  A    between atoms: _245  and  _246
REMARK  106  A    between atoms: _251  and  _253
REMARK  107  A    between atoms: _253  and  _254
REMARK  108  A    between atoms: _253  and  _256
REMARK  109  A    between atoms: _256  and  _257
REMARK  110  A    between atoms: _257  and  _258
REMARK  111  A    between atoms: _258  and  _259
REMARK  112  A    between atoms: _268  and  _270
REMARK  113  A    between atoms: _270  and  _271
REMARK  114  A    between atoms: _270  and  _273
REMARK  115  A    between atoms: _273  and  _274
REMARK  116  A    between atoms: _274  and  _275
REMARK  117  A    between atoms: _275  and  _276
REMARK  118  A    between atoms: _285  and  _287
REMARK  119  A    between atoms: _287  and  _288
REMARK  120  A    between atoms: _287  and  _290
REMARK  121  A    between atoms: _290  and  _291
REMARK  122  A    between atoms: _294  and  _296
REMARK  123  A    between atoms: _296  and  _297
REMARK  124  A    between atoms: _296  and  _299
REMARK  125  A    between atoms: _299  and  _300
REMARK  126  A    between atoms: _305  and  _306
REMARK  127  A    between atoms: _308  and  _310
REMARK  128  A    between atoms: _310  and  _311
REMARK  129  A    between atoms: _314  and  _316
REMARK  130  A    between atoms: _316  and  _317
REMARK  131  A    between atoms: _316  and  _319
REMARK  132  A    between atoms: _319  and  _320
REMARK  133  A    between atoms: _320  and  _321
REMARK  134  A    between atoms: _323  and  _325
REMARK  135  A    between atoms: _325  and  _326
REMARK  136  A    between atoms: _325  and  _328
REMARK  137  A    between atoms: _328  and  _329
REMARK                            x       y       z     vdW  Elec       q    Type
REMARK                         _______ _______ _______ _____ _____    ______ ____
ROOT
ATOM      1  O   HOH     1     -12.566 -14.747   5.909  0.00  0.00    +0.000 OA
ENDROOT
TORSDOF 0
REMARK  Name = ../refined-set-2016/4j74/4j74_pocket.pdb
REMARK  137 active torsions:
REMARK  status: ('A' for Active; 'I' for Inactive)
REMARK    1  A    between atoms: _1  and  _3
REMARK    2  A    between atoms: _3  and  _4
REMARK    3  A    between atoms: _3  and  _6
REMARK    4  A    between atoms: _6  and  _7
REMARK    5  A    between atoms: _7  and  _8
REMARK    6  A    between atoms: _10  and  _12
REMARK    7  A    between atoms: _12  and  _13
REMARK    8  A    between atoms: _12  and  _15
REMARK    9  A    between atoms: _15  and  _16
REMARK   10  A    between atoms: _16  and  _17
REMARK   11  A    between atoms: _17  and  _18
REMARK   12  A    between atoms: _18  and  _19
REMARK   13  A    between atoms: _23  and  _25
REMARK   14  A    between atoms: _25  and  _26
REMARK   15  A    between atoms: _25  and  _28
REMARK   16  A    between atoms: _31  and  _33
REMARK   17  A    between atoms: _33  and  _34
REMARK   18  A    between atoms: _33  and  _36
REMARK   19  A    between atoms: _36  and  _37
REMARK   20  A    between atoms: _40  and  _42
REMARK   21  A    between atoms: _42  and  _43
REMARK   22  A    between atoms: _42  and  _45
REMARK   23  A    between atoms: _45  and  _46
REMARK   24  A    between atoms: _51  and  _52
REMARK   25  A    between atoms: _54  and  _56
REMARK   26  A    between atoms: _56  and  _57
REMARK   27  A    between atoms: _56  and  _59
REMARK   28  A    between atoms: _59  and  _60
REMARK   29  A    between atoms: _65  and  _67
REMARK   30  A    between atoms: _67  and  _68
REMARK   31  A    between atoms: _67  and  _70
REMARK   32  A    between atoms: _70  and  _71
REMARK   33  A    between atoms: _74  and  _76
REMARK   34  A    between atoms: _76  and  _77
REMARK   35  A    between atoms: _79  and  _81
REMARK   36  A    between atoms: _81  and  _82
REMARK   37  A    between atoms: _81  and  _84
REMARK   38  A    between atoms: _84  and  _85
REMARK   39  A    between atoms: _85  and  _86
REMARK   40  A    between atoms: _91  and  _93
REMARK   41  A    between atoms: _93  and  _94
REMARK   42  A    between atoms: _93  and  _96
REMARK   43  A    between atoms: _96  and  _97
REMARK   44  A    between atoms: _102  and  _103
REMARK   45  A    between atoms: _105  and  _107
REMARK   46  A    between atoms: _107  and  _108
REMARK   47  A    between atoms: _107  and  _110
REMARK   48  A    between atoms: _110  and  _111
REMARK   49  A    between atoms: _114  and  _116
REMARK   50  A    between atoms: _116  and  _117
REMARK   51  A    between atoms: _116  and  _119
REMARK   52  A    between atoms: _119  and  _120
REMARK   53  A    between atoms: _120  and  _121
REMARK   54  A    between atoms: _123  and  _125
REMARK   55  A    between atoms: _125  and  _126
REMARK   56  A    between atoms: _125  and  _128
REMARK   57  A    between atoms: _128  and  _129
REMARK   58  A    between atoms: _134  and  _135
REMARK   59  A    between atoms: _137  and  _139
REMARK   60  A    between atoms: _139  and  _140
REMARK   61  A    between atoms: _139  and  _142
REMARK   62  A    between atoms: _142  and  _143
REMARK   63  A    between atoms: _143  and  _144
REMARK   64  A    between atoms: _149  and  _151
REMARK   65  A    between atoms: _151  and  _152
REMARK   66  A    between atoms: _151  and  _154
REMARK   67  A    between atoms: _154  and  _155
REMARK   68  A    between atoms: _160  and  _162
REMARK   69  A    between atoms: _162  and  _163
REMARK   70  A    between atoms: _162  and  _165
REMARK   71  A    between atoms: _168  and  _170
REMARK   72  A    between atoms: _170  and  _171
REMARK   73  A    between atoms: _170  and  _173
REMARK   74  A    between atoms: _173  and  _174
REMARK   75  A    between atoms: _177  and  _179
REMARK   76  A    between atoms: _179  and  _180
REMARK   77  A    between atoms: _179  and  _182
REMARK   78  A    between atoms: _182  and  _183
REMARK   79  A    between atoms: _189  and  _191
REMARK   80  A    between atoms: _191  and  _192
REMARK   81  A    between atoms: _191  and  _194
REMARK   82  A    between atoms: _194  and  _195
REMARK   83  A    between atoms: _201  and  _203
REMARK   84  A    between atoms: _203  and  _204
REMARK   85  A    between atoms: _203  and  _206
REMARK   86  A    between atoms: _206  and  _207
REMARK   87  A    between atoms: _209  and  _211
REMARK   88  A    between atoms: _211  and  _212
REMARK   89  A    between atoms: _211  and  _214
REMARK   90  A    between atoms: _217  and  _219
REMARK   91  A    between atoms: _219  and  _220
REMARK   92  A    between atoms: _219  and  _222
REMARK   93  A    between atoms: _222  and  _223
REMARK   94  A    between atoms: _223  and  _224
REMARK   95  A    between atoms: _224  and  _225
REMARK   96  A    between atoms: _225  and  _226
REMARK   97  A    between atoms: _230  and  _232
REMARK   98  A    between atoms: _232  and  _233
REMARK   99  A    between atoms: _232  and  _235
REMARK  100  A    between atoms: _235  and  _236
REMARK  101  A    between atoms: _236  and  _237
REMARK  102  A    between atoms: _240  and  _242
REMARK  103  A    between atoms: _242  and  _243
REMARK  104  A    between atoms: _242  and  _245
REMARK  105  A    between atoms: _245  and  _246
REMARK  106  A    between atoms: _251  and  _253
REMARK  107  A    between atoms: _253  and  _254
REMARK  108  A    between atoms: _253  and  _256
REMARK  109  A    between atoms: _256  and  _257
REMARK  110  A    between atoms: _257  and  _258
REMARK  111  A    between atoms: _258  and  _259
REMARK  112  A    between atoms: _268  and  _270
REMARK  113  A    between atoms: _270  and  _271
REMARK  114  A    between atoms: _270  and  _273
REMARK  115  A    between atoms: _273  and  _274
REMARK  116  A    between atoms: _274  and  _275
REMARK  117  A    between atoms: _275  and  _276
REMARK  118  A    between atoms: _285  and  _287
REMARK  119  A    between atoms: _287  and  _288
REMARK  120  A    between atoms: _287  and  _290
REMARK  121  A    between atoms: _290  and  _291
REMARK  122  A    between atoms: _294  and  _296
REMARK  123  A    between atoms: _296  and  _297
REMARK  124  A    between atoms: _296  and  _299
REMARK  125  A    between atoms: _299  and  _300
REMARK  126  A    between atoms: _305  and  _306
REMARK  127  A    between atoms: _308  and  _310
REMARK  128  A    between atoms: _310  and  _311
REMARK  129  A    between atoms: _314  and  _316
REMARK  130  A    between atoms: _316  and  _317
REMARK  131  A    between atoms: _316  and  _319
REMARK  132  A    between atoms: _319  and  _320
REMARK  133  A    between atoms: _320  and  _321
REMARK  134  A    between atoms: _323  and  _325
REMARK  135  A    between atoms: _325  and  _326
REMARK  136  A    between atoms: _325  and  _328
REMARK  137  A    between atoms: _328  and  _329
REMARK                            x       y       z     vdW  Elec       q    Type
REMARK                         _______ _______ _______ _____ _____    ______ ____
ROOT
ATOM      1  O   HOH     1     -14.236 -13.637   7.850  0.00  0.00    +0.000 OA
ENDROOT
TORSDOF 0
