REMARK  Name = ../refined-set-2016/2j62/2j62_pocket.pdb
REMARK  224 active torsions:
REMARK  status: ('A' for Active; 'I' for Inactive)
REMARK    1  A    between atoms: _1  and  _3
REMARK    2  A    between atoms: _3  and  _4
REMARK    3  A    between atoms: _3  and  _6
REMARK    4  A    between atoms: _9  and  _11
REMARK    5  A    between atoms: _11  and  _12
REMARK    6  A    between atoms: _11  and  _14
REMARK    7  A    between atoms: _14  and  _15
REMARK    8  A    between atoms: _15  and  _16
REMARK    9  A    between atoms: _19  and  _21
REMARK   10  A    between atoms: _21  and  _22
REMARK   11  A    between atoms: _24  and  _26
REMARK   12  A    between atoms: _26  and  _27
REMARK   13  A    between atoms: _26  and  _29
REMARK   14  A    between atoms: _29  and  _30
REMARK   15  A    between atoms: _36  and  _38
REMARK   16  A    between atoms: _38  and  _39
REMARK   17  A    between atoms: _38  and  _41
REMARK   18  A    between atoms: _41  and  _42
REMARK   19  A    between atoms: _47  and  _48
REMARK   20  A    between atoms: _50  and  _52
REMARK   21  A    between atoms: _52  and  _53
REMARK   22  A    between atoms: _55  and  _57
REMARK   23  A    between atoms: _57  and  _58
REMARK   24  A    between atoms: _62  and  _63
REMARK   25  A    between atoms: _68  and  _70
REMARK   26  A    between atoms: _70  and  _71
REMARK   27  A    between atoms: _70  and  _73
REMARK   28  A    between atoms: _73  and  _74
REMARK   29  A    between atoms: _74  and  _75
REMARK   30  A    between atoms: _75  and  _76
REMARK   31  A    between atoms: _76  and  _77
REMARK   32  A    between atoms: _81  and  _83
REMARK   33  A    between atoms: _83  and  _84
REMARK   34  A    between atoms: _83  and  _86
REMARK   35  A    between atoms: _86  and  _87
REMARK   36  A    between atoms: _90  and  _92
REMARK   37  A    between atoms: _92  and  _93
REMARK   38  A    between atoms: _92  and  _95
REMARK   39  A    between atoms: _95  and  _96
REMARK   40  A    between atoms: _96  and  _97
REMARK   41  A    between atoms: _97  and  _98
REMARK   42  A    between atoms: _107  and  _109
REMARK   43  A    between atoms: _109  and  _110
REMARK   44  A    between atoms: _109  and  _112
REMARK   45  A    between atoms: _112  and  _113
REMARK   46  A    between atoms: _115  and  _117
REMARK   47  A    between atoms: _117  and  _118
REMARK   48  A    between atoms: _117  and  _120
REMARK   49  A    between atoms: _120  and  _121
REMARK   50  A    between atoms: _126  and  _127
REMARK   51  A    between atoms: _129  and  _131
REMARK   52  A    between atoms: _131  and  _132
REMARK   53  A    between atoms: _131  and  _134
REMARK   54  A    between atoms: _134  and  _135
REMARK   55  A    between atoms: _145  and  _147
REMARK   56  A    between atoms: _147  and  _148
REMARK   57  A    between atoms: _147  and  _150
REMARK   58  A    between atoms: _150  and  _151
REMARK   59  A    between atoms: _154  and  _156
REMARK   60  A    between atoms: _156  and  _157
REMARK   61  A    between atoms: _156  and  _159
REMARK   62  A    between atoms: _159  and  _160
REMARK   63  A    between atoms: _163  and  _165
REMARK   64  A    between atoms: _165  and  _166
REMARK   65  A    between atoms: _165  and  _168
REMARK   66  A    between atoms: _168  and  _169
REMARK   67  A    between atoms: _172  and  _174
REMARK   68  A    between atoms: _174  and  _175
REMARK   69  A    between atoms: _174  and  _177
REMARK   70  A    between atoms: _177  and  _178
REMARK   71  A    between atoms: _181  and  _183
REMARK   72  A    between atoms: _183  and  _184
REMARK   73  A    between atoms: _183  and  _186
REMARK   74  A    between atoms: _190  and  _191
REMARK   75  A    between atoms: _196  and  _198
REMARK   76  A    between atoms: _198  and  _199
REMARK   77  A    between atoms: _198  and  _201
REMARK   78  A    between atoms: _201  and  _202
REMARK   79  A    between atoms: _205  and  _207
REMARK   80  A    between atoms: _207  and  _208
REMARK   81  A    between atoms: _207  and  _210
REMARK   82  A    between atoms: _210  and  _211
REMARK   83  A    between atoms: _211  and  _212
REMARK   84  A    between atoms: _215  and  _217
REMARK   85  A    between atoms: _217  and  _218
REMARK   86  A    between atoms: _217  and  _220
REMARK   87  A    between atoms: _220  and  _221
REMARK   88  A    between atoms: _226  and  _227
REMARK   89  A    between atoms: _229  and  _231
REMARK   90  A    between atoms: _231  and  _232
REMARK   91  A    between atoms: _231  and  _234
REMARK   92  A    between atoms: _234  and  _235
REMARK   93  A    between atoms: _238  and  _240
REMARK   94  A    between atoms: _240  and  _241
REMARK   95  A    between atoms: _240  and  _243
REMARK   96  A    between atoms: _243  and  _244
REMARK   97  A    between atoms: _244  and  _245
REMARK   98  A    between atoms: _247  and  _249
REMARK   99  A    between atoms: _249  and  _250
REMARK  100  A    between atoms: _249  and  _252
REMARK  101  A    between atoms: _252  and  _253
REMARK  102  A    between atoms: _263  and  _265
REMARK  103  A    between atoms: _265  and  _266
REMARK  104  A    between atoms: _265  and  _268
REMARK  105  A    between atoms: _268  and  _269
REMARK  106  A    between atoms: _272  and  _274
REMARK  107  A    between atoms: _274  and  _275
REMARK  108  A    between atoms: _277  and  _279
REMARK  109  A    between atoms: _279  and  _280
REMARK  110  A    between atoms: _282  and  _284
REMARK  111  A    between atoms: _284  and  _285
REMARK  112  A    between atoms: _284  and  _287
REMARK  113  A    between atoms: _290  and  _292
REMARK  114  A    between atoms: _292  and  _293
REMARK  115  A    between atoms: _292  and  _295
REMARK  116  A    between atoms: _298  and  _300
REMARK  117  A    between atoms: _300  and  _301
REMARK  118  A    between atoms: _300  and  _303
REMARK  119  A    between atoms: _306  and  _308
REMARK  120  A    between atoms: _308  and  _309
REMARK  121  A    between atoms: _308  and  _311
REMARK  122  A    between atoms: _311  and  _312
REMARK  123  A    between atoms: _322  and  _324
REMARK  124  A    between atoms: _324  and  _325
REMARK  125  A    between atoms: _324  and  _327
REMARK  126  A    between atoms: _327  and  _328
REMARK  127  A    between atoms: _338  and  _340
REMARK  128  A    between atoms: _340  and  _341
REMARK  129  A    between atoms: _340  and  _343
REMARK  130  A    between atoms: _343  and  _344
REMARK  131  A    between atoms: _349  and  _351
REMARK  132  A    between atoms: _351  and  _352
REMARK  133  A    between atoms: _351  and  _354
REMARK  134  A    between atoms: _354  and  _355
REMARK  135  A    between atoms: _360  and  _361
REMARK  136  A    between atoms: _363  and  _365
REMARK  137  A    between atoms: _365  and  _366
REMARK  138  A    between atoms: _365  and  _368
REMARK  139  A    between atoms: _371  and  _373
REMARK  140  A    between atoms: _373  and  _374
REMARK  141  A    between atoms: _373  and  _376
REMARK  142  A    between atoms: _376  and  _377
REMARK  143  A    between atoms: _380  and  _382
REMARK  144  A    between atoms: _382  and  _383
REMARK  145  A    between atoms: _382  and  _385
REMARK  146  A    between atoms: _385  and  _386
REMARK  147  A    between atoms: _389  and  _391
REMARK  148  A    between atoms: _391  and  _392
REMARK  149  A    between atoms: _391  and  _394
REMARK  150  A    between atoms: _394  and  _395
REMARK  151  A    between atoms: _400  and  _401
REMARK  152  A    between atoms: _403  and  _405
REMARK  153  A    between atoms: _405  and  _406
REMARK  154  A    between atoms: _405  and  _408
REMARK  155  A    between atoms: _408  and  _409
REMARK  156  A    between atoms: _415  and  _417
REMARK  157  A    between atoms: _417  and  _418
REMARK  158  A    between atoms: _417  and  _420
REMARK  159  A    between atoms: _420  and  _421
REMARK  160  A    between atoms: _427  and  _428
REMARK  161  A    between atoms: _433  and  _435
REMARK  162  A    between atoms: _435  and  _436
REMARK  163  A    between atoms: _435  and  _438
REMARK  164  A    between atoms: _438  and  _439
REMARK  165  A    between atoms: _444  and  _446
REMARK  166  A    between atoms: _446  and  _447
REMARK  167  A    between atoms: _446  and  _449
REMARK  168  A    between atoms: _449  and  _450
REMARK  169  A    between atoms: _460  and  _462
REMARK  170  A    between atoms: _462  and  _463
REMARK  171  A    between atoms: _466  and  _468
REMARK  172  A    between atoms: _468  and  _469
REMARK  173  A    between atoms: _468  and  _471
REMARK  174  A    between atoms: _471  and  _472
REMARK  175  A    between atoms: _482  and  _484
REMARK  176  A    between atoms: _484  and  _485
REMARK  177  A    between atoms: _484  and  _487
REMARK  178  A    between atoms: _487  and  _488
REMARK  179  A    between atoms: _488  and  _489
REMARK  180  A    between atoms: _489  and  _490
REMARK  181  A    between atoms: _490  and  _491
REMARK  182  A    between atoms: _495  and  _497
REMARK  183  A    between atoms: _497  and  _498
REMARK  184  A    between atoms: _497  and  _500
REMARK  185  A    between atoms: _500  and  _501
REMARK  186  A    between atoms: _504  and  _506
REMARK  187  A    between atoms: _506  and  _507
REMARK  188  A    between atoms: _506  and  _509
REMARK  189  A    between atoms: _509  and  _510
REMARK  190  A    between atoms: _512  and  _514
REMARK  191  A    between atoms: _514  and  _515
REMARK  192  A    between atoms: _514  and  _517
REMARK  193  A    between atoms: _517  and  _518
REMARK  194  A    between atoms: _520  and  _522
REMARK  195  A    between atoms: _522  and  _523
REMARK  196  A    between atoms: _522  and  _525
REMARK  197  A    between atoms: _525  and  _526
REMARK  198  A    between atoms: _526  and  _527
REMARK  199  A    between atoms: _527  and  _528
REMARK  200  A    between atoms: _528  and  _529
REMARK  201  A    between atoms: _533  and  _535
REMARK  202  A    between atoms: _535  and  _536
REMARK  203  A    between atoms: _535  and  _538
REMARK  204  A    between atoms: _538  and  _539
REMARK  205  A    between atoms: _545  and  _547
REMARK  206  A    between atoms: _547  and  _548
REMARK  207  A    between atoms: _547  and  _550
REMARK  208  A    between atoms: _550  and  _551
REMARK  209  A    between atoms: _554  and  _556
REMARK  210  A    between atoms: _556  and  _557
REMARK  211  A    between atoms: _556  and  _559
REMARK  212  A    between atoms: _559  and  _560
REMARK  213  A    between atoms: _563  and  _565
REMARK  214  A    between atoms: _565  and  _566
REMARK  215  A    between atoms: _565  and  _568
REMARK  216  A    between atoms: _568  and  _569
REMARK  217  A    between atoms: _572  and  _574
REMARK  218  A    between atoms: _574  and  _575
REMARK  219  A    between atoms: _574  and  _577
REMARK  220  A    between atoms: _577  and  _578
REMARK  221  A    between atoms: _581  and  _583
REMARK  222  A    between atoms: _583  and  _584
REMARK  223  A    between atoms: _583  and  _586
REMARK  224  A    between atoms: _586  and  _587
REMARK                            x       y       z     vdW  Elec       q    Type
REMARK                         _______ _______ _______ _____ _____    ______ ____
ROOT
ATOM      1  CA  PHE A   4      29.729  45.786  26.025  0.00  0.00    +0.153 C 
ENDROOT
BRANCH   1   3
ATOM      2  C   GLY A   3      32.142  46.024  26.281  0.00  0.00    +0.243 C 
ATOM      3  N   PHE A   4      30.913  46.215  26.762  0.00  0.00    -0.297 N 
ATOM      4  H   PHE A   4      30.796  46.681  27.684  0.00  0.00    +0.150 HD
ATOM      5  O   GLY A   3      32.375  45.617  25.120  0.00  0.00    -0.273 OA
BRANCH   2   6
ATOM      6  CA  GLY A   3      33.282  46.338  27.236  0.00  0.00    +0.176 C 
BRANCH   6   9
ATOM      7  C   GLU A   2      33.154  47.342  29.479  0.00  0.00    +0.241 C 
ATOM      8  O   GLU A   2      33.560  48.420  29.089  0.00  0.00    -0.273 OA
ATOM      9  N   GLY A   3      32.949  46.294  28.674  0.00  0.00    -0.295 N 
ATOM     10  H   GLY A   3      32.543  45.423  29.072  0.00  0.00    +0.150 HD
BRANCH   7  11
ATOM     11  CA  GLU A   2      32.947  47.117  30.957  0.00  0.00    +0.149 C 
BRANCH  11  13
ATOM     12  C   VAL A   1      34.520  45.311  31.177  0.00  0.00    +0.238 C 
ATOM     13  N   GLU A   2      34.241  46.595  31.374  0.00  0.00    -0.297 N 
ATOM     14  H   GLU A   2      34.940  47.221  31.822  0.00  0.00    +0.150 HD
ATOM     15  O   VAL A   1      33.678  44.505  30.750  0.00  0.00    -0.274 OA
BRANCH  12  16
ATOM     16  CA  VAL A   1      35.940  44.853  31.522  0.00  0.00    +0.145 C 
BRANCH  16  17
ATOM     17  CB  VAL A   1      36.650  44.359  30.251  0.00  0.00    +0.025 C 
ATOM     18  CG2 VAL A   1      36.039  43.020  29.738  0.00  0.00    +0.002 C 
ATOM     19  CG1 VAL A   1      36.577  45.442  29.165  0.00  0.00    +0.002 C 
ENDBRANCH  16  17
BRANCH  16  20
ATOM     20  N   VAL A   1      35.827  43.832  32.546  0.00  0.00    -0.238 NA
ATOM     21  H   VAL A   1      35.434  42.902  32.296  0.00  0.00    +0.142 HD
ENDBRANCH  16  20
ENDBRANCH  12  16
ENDBRANCH  11  13
BRANCH  11  22
ATOM     22  CB  GLU A   2      32.628  48.431  31.675  0.00  0.00    +0.041 C 
BRANCH  22  23
ATOM     23  CG  GLU A   2      31.182  48.836  31.510  0.00  0.00    +0.116 C 
BRANCH  23  24
ATOM     24  CD  GLU A   2      30.841  50.209  32.052  0.00  0.00    +0.365 C 
ATOM     25  OE2 GLU A   2      31.441  50.679  33.067  0.00  0.00    -0.246 OA
ATOM     26  OE1 GLU A   2      29.945  50.832  31.445  0.00  0.00    -0.246 OA
ENDBRANCH  23  24
ENDBRANCH  22  23
ENDBRANCH  11  22
ENDBRANCH   7  11
ENDBRANCH   6   9
ENDBRANCH   2   6
ENDBRANCH   1   3
BRANCH   1  27
ATOM     27  C   PHE A   4      29.172  46.907  25.155  0.00  0.00    +0.241 C 
ATOM     28  O   PHE A   4      29.529  48.088  25.340  0.00  0.00    -0.273 OA
ATOM     29  N   TYR A   5      28.309  46.529  24.201  0.00  0.00    -0.297 N 
ATOM     30  H   TYR A   5      28.230  45.519  23.966  0.00  0.00    +0.150 HD
BRANCH  29  31
ATOM     31  CA  TYR A   5      27.469  47.496  23.474  0.00  0.00    +0.153 C 
BRANCH  31  32
ATOM     32  C   TYR A   5      26.204  47.779  24.297  0.00  0.00    +0.241 C 
ATOM     33  O   TYR A   5      25.741  46.913  25.073  0.00  0.00    -0.273 OA
ATOM     34  N   GLY A   6      25.637  48.971  24.130  0.00  0.00    -0.296 N 
ATOM     35  H   GLY A   6      26.056  49.651  23.464  0.00  0.00    +0.150 HD
BRANCH  34  36
ATOM     36  CA  GLY A   6      24.431  49.335  24.872  0.00  0.00    +0.163 C 
BRANCH  36  37
ATOM     37  C   GLY A   6      24.689  50.441  25.875  0.00  0.00    +0.229 C 
ATOM     38  O   GLY A   6      25.812  50.986  25.944  0.00  0.00    -0.286 OA
ENDBRANCH  36  37
ENDBRANCH  34  36
ENDBRANCH  31  32
BRANCH  31  39
ATOM     39  CB  TYR A   5      27.059  46.964  22.105  0.00  0.00    +0.055 C 
BRANCH  39  40
ATOM     40  CG  TYR A   5      28.180  46.857  21.096  0.00  0.00    -0.020 A 
ATOM     41  CD2 TYR A   5      28.911  45.659  20.962  0.00  0.00    -0.001 A 
ATOM     42  CE2 TYR A   5      29.958  45.548  20.026  0.00  0.00    +0.036 A 
ATOM     43  CZ  TYR A   5      30.278  46.633  19.210  0.00  0.00    +0.134 A 
ATOM     44  CE1 TYR A   5      29.577  47.831  19.323  0.00  0.00    +0.036 A 
ATOM     45  CD1 TYR A   5      28.511  47.942  20.251  0.00  0.00    -0.001 A 
BRANCH  43  46
ATOM     46  OH  TYR A   5      31.312  46.501  18.273  0.00  0.00    -0.506 OA
ATOM     47  HH  TYR A   5      31.695  45.590  18.332  0.00  0.00    +0.292 HD
ENDBRANCH  43  46
ENDBRANCH  39  40
ENDBRANCH  31  39
ENDBRANCH  29  31
ENDBRANCH   1  27
BRANCH   1  48
ATOM     48  CB  PHE A   4      28.639  45.252  26.989  0.00  0.00    +0.055 C 
BRANCH  48  49
ATOM     49  CG  PHE A   4      28.318  46.190  28.147  0.00  0.00    -0.020 A 
ATOM     50  CD2 PHE A   4      28.906  45.997  29.398  0.00  0.00    -0.004 A 
ATOM     51  CE2 PHE A   4      28.634  46.870  30.484  0.00  0.00    -0.000 A 
ATOM     52  CZ  PHE A   4      27.746  47.953  30.308  0.00  0.00    -0.000 A 
ATOM     53  CE1 PHE A   4      27.139  48.154  29.080  0.00  0.00    -0.000 A 
ATOM     54  CD1 PHE A   4      27.430  47.262  27.982  0.00  0.00    -0.004 A 
ENDBRANCH  48  49
ENDBRANCH   1  48
TORSDOF 21
REMARK  Name = ../refined-set-2016/2j62/2j62_pocket.pdb
REMARK  224 active torsions:
REMARK  status: ('A' for Active; 'I' for Inactive)
REMARK    1  A    between atoms: _1  and  _3
REMARK    2  A    between atoms: _3  and  _4
REMARK    3  A    between atoms: _3  and  _6
REMARK    4  A    between atoms: _9  and  _11
REMARK    5  A    between atoms: _11  and  _12
REMARK    6  A    between atoms: _11  and  _14
REMARK    7  A    between atoms: _14  and  _15
REMARK    8  A    between atoms: _15  and  _16
REMARK    9  A    between atoms: _19  and  _21
REMARK   10  A    between atoms: _21  and  _22
REMARK   11  A    between atoms: _24  and  _26
REMARK   12  A    between atoms: _26  and  _27
REMARK   13  A    between atoms: _26  and  _29
REMARK   14  A    between atoms: _29  and  _30
REMARK   15  A    between atoms: _36  and  _38
REMARK   16  A    between atoms: _38  and  _39
REMARK   17  A    between atoms: _38  and  _41
REMARK   18  A    between atoms: _41  and  _42
REMARK   19  A    between atoms: _47  and  _48
REMARK   20  A    between atoms: _50  and  _52
REMARK   21  A    between atoms: _52  and  _53
REMARK   22  A    between atoms: _55  and  _57
REMARK   23  A    between atoms: _57  and  _58
REMARK   24  A    between atoms: _62  and  _63
REMARK   25  A    between atoms: _68  and  _70
REMARK   26  A    between atoms: _70  and  _71
REMARK   27  A    between atoms: _70  and  _73
REMARK   28  A    between atoms: _73  and  _74
REMARK   29  A    between atoms: _74  and  _75
REMARK   30  A    between atoms: _75  and  _76
REMARK   31  A    between atoms: _76  and  _77
REMARK   32  A    between atoms: _81  and  _83
REMARK   33  A    between atoms: _83  and  _84
REMARK   34  A    between atoms: _83  and  _86
REMARK   35  A    between atoms: _86  and  _87
REMARK   36  A    between atoms: _90  and  _92
REMARK   37  A    between atoms: _92  and  _93
REMARK   38  A    between atoms: _92  and  _95
REMARK   39  A    between atoms: _95  and  _96
REMARK   40  A    between atoms: _96  and  _97
REMARK   41  A    between atoms: _97  and  _98
REMARK   42  A    between atoms: _107  and  _109
REMARK   43  A    between atoms: _109  and  _110
REMARK   44  A    between atoms: _109  and  _112
REMARK   45  A    between atoms: _112  and  _113
REMARK   46  A    between atoms: _115  and  _117
REMARK   47  A    between atoms: _117  and  _118
REMARK   48  A    between atoms: _117  and  _120
REMARK   49  A    between atoms: _120  and  _121
REMARK   50  A    between atoms: _126  and  _127
REMARK   51  A    between atoms: _129  and  _131
REMARK   52  A    between atoms: _131  and  _132
REMARK   53  A    between atoms: _131  and  _134
REMARK   54  A    between atoms: _134  and  _135
REMARK   55  A    between atoms: _145  and  _147
REMARK   56  A    between atoms: _147  and  _148
REMARK   57  A    between atoms: _147  and  _150
REMARK   58  A    between atoms: _150  and  _151
REMARK   59  A    between atoms: _154  and  _156
REMARK   60  A    between atoms: _156  and  _157
REMARK   61  A    between atoms: _156  and  _159
REMARK   62  A    between atoms: _159  and  _160
REMARK   63  A    between atoms: _163  and  _165
REMARK   64  A    between atoms: _165  and  _166
REMARK   65  A    between atoms: _165  and  _168
REMARK   66  A    between atoms: _168  and  _169
REMARK   67  A    between atoms: _172  and  _174
REMARK   68  A    between atoms: _174  and  _175
REMARK   69  A    between atoms: _174  and  _177
REMARK   70  A    between atoms: _177  and  _178
REMARK   71  A    between atoms: _181  and  _183
REMARK   72  A    between atoms: _183  and  _184
REMARK   73  A    between atoms: _183  and  _186
REMARK   74  A    between atoms: _190  and  _191
REMARK   75  A    between atoms: _196  and  _198
REMARK   76  A    between atoms: _198  and  _199
REMARK   77  A    between atoms: _198  and  _201
REMARK   78  A    between atoms: _201  and  _202
REMARK   79  A    between atoms: _205  and  _207
REMARK   80  A    between atoms: _207  and  _208
REMARK   81  A    between atoms: _207  and  _210
REMARK   82  A    between atoms: _210  and  _211
REMARK   83  A    between atoms: _211  and  _212
REMARK   84  A    between atoms: _215  and  _217
REMARK   85  A    between atoms: _217  and  _218
REMARK   86  A    between atoms: _217  and  _220
REMARK   87  A    between atoms: _220  and  _221
REMARK   88  A    between atoms: _226  and  _227
REMARK   89  A    between atoms: _229  and  _231
REMARK   90  A    between atoms: _231  and  _232
REMARK   91  A    between atoms: _231  and  _234
REMARK   92  A    between atoms: _234  and  _235
REMARK   93  A    between atoms: _238  and  _240
REMARK   94  A    between atoms: _240  and  _241
REMARK   95  A    between atoms: _240  and  _243
REMARK   96  A    between atoms: _243  and  _244
REMARK   97  A    between atoms: _244  and  _245
REMARK   98  A    between atoms: _247  and  _249
REMARK   99  A    between atoms: _249  and  _250
REMARK  100  A    between atoms: _249  and  _252
REMARK  101  A    between atoms: _252  and  _253
REMARK  102  A    between atoms: _263  and  _265
REMARK  103  A    between atoms: _265  and  _266
REMARK  104  A    between atoms: _265  and  _268
REMARK  105  A    between atoms: _268  and  _269
REMARK  106  A    between atoms: _272  and  _274
REMARK  107  A    between atoms: _274  and  _275
REMARK  108  A    between atoms: _277  and  _279
REMARK  109  A    between atoms: _279  and  _280
REMARK  110  A    between atoms: _282  and  _284
REMARK  111  A    between atoms: _284  and  _285
REMARK  112  A    between atoms: _284  and  _287
REMARK  113  A    between atoms: _290  and  _292
REMARK  114  A    between atoms: _292  and  _293
REMARK  115  A    between atoms: _292  and  _295
REMARK  116  A    between atoms: _298  and  _300
REMARK  117  A    between atoms: _300  and  _301
REMARK  118  A    between atoms: _300  and  _303
REMARK  119  A    between atoms: _306  and  _308
REMARK  120  A    between atoms: _308  and  _309
REMARK  121  A    between atoms: _308  and  _311
REMARK  122  A    between atoms: _311  and  _312
REMARK  123  A    between atoms: _322  and  _324
REMARK  124  A    between atoms: _324  and  _325
REMARK  125  A    between atoms: _324  and  _327
REMARK  126  A    between atoms: _327  and  _328
REMARK  127  A    between atoms: _338  and  _340
REMARK  128  A    between atoms: _340  and  _341
REMARK  129  A    between atoms: _340  and  _343
REMARK  130  A    between atoms: _343  and  _344
REMARK  131  A    between atoms: _349  and  _351
REMARK  132  A    between atoms: _351  and  _352
REMARK  133  A    between atoms: _351  and  _354
REMARK  134  A    between atoms: _354  and  _355
REMARK  135  A    between atoms: _360  and  _361
REMARK  136  A    between atoms: _363  and  _365
REMARK  137  A    between atoms: _365  and  _366
REMARK  138  A    between atoms: _365  and  _368
REMARK  139  A    between atoms: _371  and  _373
REMARK  140  A    between atoms: _373  and  _374
REMARK  141  A    between atoms: _373  and  _376
REMARK  142  A    between atoms: _376  and  _377
REMARK  143  A    between atoms: _380  and  _382
REMARK  144  A    between atoms: _382  and  _383
REMARK  145  A    between atoms: _382  and  _385
REMARK  146  A    between atoms: _385  and  _386
REMARK  147  A    between atoms: _389  and  _391
REMARK  148  A    between atoms: _391  and  _392
REMARK  149  A    between atoms: _391  and  _394
REMARK  150  A    between atoms: _394  and  _395
REMARK  151  A    between atoms: _400  and  _401
REMARK  152  A    between atoms: _403  and  _405
REMARK  153  A    between atoms: _405  and  _406
REMARK  154  A    between atoms: _405  and  _408
REMARK  155  A    between atoms: _408  and  _409
REMARK  156  A    between atoms: _415  and  _417
REMARK  157  A    between atoms: _417  and  _418
REMARK  158  A    between atoms: _417  and  _420
REMARK  159  A    between atoms: _420  and  _421
REMARK  160  A    between atoms: _427  and  _428
REMARK  161  A    between atoms: _433  and  _435
REMARK  162  A    between atoms: _435  and  _436
REMARK  163  A    between atoms: _435  and  _438
REMARK  164  A    between atoms: _438  and  _439
REMARK  165  A    between atoms: _444  and  _446
REMARK  166  A    between atoms: _446  and  _447
REMARK  167  A    between atoms: _446  and  _449
REMARK  168  A    between atoms: _449  and  _450
REMARK  169  A    between atoms: _460  and  _462
REMARK  170  A    between atoms: _462  and  _463
REMARK  171  A    between atoms: _466  and  _468
REMARK  172  A    between atoms: _468  and  _469
REMARK  173  A    between atoms: _468  and  _471
REMARK  174  A    between atoms: _471  and  _472
REMARK  175  A    between atoms: _482  and  _484
REMARK  176  A    between atoms: _484  and  _485
REMARK  177  A    between atoms: _484  and  _487
REMARK  178  A    between atoms: _487  and  _488
REMARK  179  A    between atoms: _488  and  _489
REMARK  180  A    between atoms: _489  and  _490
REMARK  181  A    between atoms: _490  and  _491
REMARK  182  A    between atoms: _495  and  _497
REMARK  183  A    between atoms: _497  and  _498
REMARK  184  A    between atoms: _497  and  _500
REMARK  185  A    between atoms: _500  and  _501
REMARK  186  A    between atoms: _504  and  _506
REMARK  187  A    between atoms: _506  and  _507
REMARK  188  A    between atoms: _506  and  _509
REMARK  189  A    between atoms: _509  and  _510
REMARK  190  A    between atoms: _512  and  _514
REMARK  191  A    between atoms: _514  and  _515
REMARK  192  A    between atoms: _514  and  _517
REMARK  193  A    between atoms: _517  and  _518
REMARK  194  A    between atoms: _520  and  _522
REMARK  195  A    between atoms: _522  and  _523
REMARK  196  A    between atoms: _522  and  _525
REMARK  197  A    between atoms: _525  and  _526
REMARK  198  A    between atoms: _526  and  _527
REMARK  199  A    between atoms: _527  and  _528
REMARK  200  A    between atoms: _528  and  _529
REMARK  201  A    between atoms: _533  and  _535
REMARK  202  A    between atoms: _535  and  _536
REMARK  203  A    between atoms: _535  and  _538
REMARK  204  A    between atoms: _538  and  _539
REMARK  205  A    between atoms: _545  and  _547
REMARK  206  A    between atoms: _547  and  _548
REMARK  207  A    between atoms: _547  and  _550
REMARK  208  A    between atoms: _550  and  _551
REMARK  209  A    between atoms: _554  and  _556
REMARK  210  A    between atoms: _556  and  _557
REMARK  211  A    between atoms: _556  and  _559
REMARK  212  A    between atoms: _559  and  _560
REMARK  213  A    between atoms: _563  and  _565
REMARK  214  A    between atoms: _565  and  _566
REMARK  215  A    between atoms: _565  and  _568
REMARK  216  A    between atoms: _568  and  _569
REMARK  217  A    between atoms: _572  and  _574
REMARK  218  A    between atoms: _574  and  _575
REMARK  219  A    between atoms: _574  and  _577
REMARK  220  A    between atoms: _577  and  _578
REMARK  221  A    between atoms: _581  and  _583
REMARK  222  A    between atoms: _583  and  _584
REMARK  223  A    between atoms: _583  and  _586
REMARK  224  A    between atoms: _586  and  _587
REMARK                            x       y       z     vdW  Elec       q    Type
REMARK                         _______ _______ _______ _____ _____    ______ ____
ROOT
ATOM      1  CA  LYS A   3      31.554  50.555  23.269  0.00  0.00    +0.149 C 
ENDROOT
BRANCH   1   4
ATOM      2  C   PRO A   2      32.116  51.231  25.569  0.00  0.00    +0.241 C 
ATOM      3  O   PRO A   2      32.527  52.349  25.213  0.00  0.00    -0.273 OA
ATOM      4  N   LYS A   3      31.647  50.318  24.714  0.00  0.00    -0.297 N 
ATOM      5  H   LYS A   3      31.334  49.400  25.089  0.00  0.00    +0.150 HD
BRANCH   2  11
ATOM      6  C   ALA A   1      34.482  50.149  27.170  0.00  0.00    +0.241 C 
ATOM      7  N   PRO A   2      33.546  50.995  27.625  0.00  0.00    -0.272 N 
ATOM      8  CD  PRO A   2      33.626  52.108  28.592  0.00  0.00    +0.094 C 
ATOM      9  CG  PRO A   2      32.248  52.691  28.590  0.00  0.00    +0.024 C 
ATOM     10  CB  PRO A   2      31.306  51.686  27.952  0.00  0.00    +0.031 C 
ATOM     11  CA  PRO A   2      32.191  50.805  27.061  0.00  0.00    +0.152 C 
ATOM     12  O   ALA A   1      34.223  49.299  26.323  0.00  0.00    -0.273 OA
BRANCH   6  13
ATOM     13  CA  ALA A   1      35.916  50.259  27.728  0.00  0.00    +0.145 C 
ATOM     14  CB  ALA A   1      36.763  49.056  27.216  0.00  0.00    +0.028 C 
BRANCH  13  15
ATOM     15  N   ALA A   1      36.000  50.345  29.196  0.00  0.00    -0.238 NA
ATOM     16  H   ALA A   1      35.249  49.908  29.767  0.00  0.00    +0.142 HD
ENDBRANCH  13  15
ENDBRANCH   6  13
ENDBRANCH   2  11
ENDBRANCH   1   4
BRANCH   1  17
ATOM     17  C   LYS A   3      30.780  51.806  22.873  0.00  0.00    +0.241 C 
ATOM     18  N   ASP A   4      29.749  52.138  23.647  0.00  0.00    -0.298 N 
ATOM     19  H   ASP A   4      29.532  51.569  24.490  0.00  0.00    +0.150 HD
ATOM     20  O   LYS A   3      31.119  52.470  21.881  0.00  0.00    -0.273 OA
BRANCH  18  21
ATOM     21  CA  ASP A   4      28.921  53.295  23.320  0.00  0.00    +0.148 C 
BRANCH  21  22
ATOM     22  C   ASP A   4      29.185  54.565  24.115  0.00  0.00    +0.227 C 
ATOM     23  O   ASP A   4      28.408  55.540  24.006  0.00  0.00    -0.286 OA
ENDBRANCH  21  22
BRANCH  21  24
ATOM     24  CB  ASP A   4      27.443  52.904  23.303  0.00  0.00    +0.142 C 
BRANCH  24  25
ATOM     25  CG  ASP A   4      27.156  51.833  22.244  0.00  0.00    +0.367 C 
ATOM     26  OD2 ASP A   4      26.496  50.829  22.580  0.00  0.00    -0.246 OA
ATOM     27  OD1 ASP A   4      27.628  51.995  21.076  0.00  0.00    -0.246 OA
ENDBRANCH  24  25
ENDBRANCH  21  24
ENDBRANCH  18  21
ENDBRANCH   1  17
BRANCH   1  28
ATOM     28  CB  LYS A   3      30.951  49.340  22.552  0.00  0.00    +0.029 C 
BRANCH  28  29
ATOM     29  CG  LYS A   3      31.925  48.181  22.345  0.00  0.00    +0.000 C 
BRANCH  29  30
ATOM     30  CD  LYS A   3      32.907  48.438  21.200  0.00  0.00    -0.024 C 
BRANCH  30  31
ATOM     31  CE  LYS A   3      33.613  47.145  20.746  0.00  0.00    -0.086 C 
BRANCH  31  32
ATOM     32  NZ  LYS A   3      34.424  46.496  21.857  0.00  0.00    +0.380 N 
ATOM     33  HZ1 LYS A   3      33.794  46.254  22.648  0.00  0.00    -0.089 HD
ATOM     34  HZ2 LYS A   3      35.155  47.160  22.184  0.00  0.00    -0.089 HD
ATOM     35  HZ3 LYS A   3      34.876  45.632  21.495  0.00  0.00    -0.089 HD
ENDBRANCH  31  32
ENDBRANCH  30  31
ENDBRANCH  29  30
ENDBRANCH  28  29
ENDBRANCH   1  28
TORSDOF 14
REMARK  Name = ../refined-set-2016/2j62/2j62_pocket.pdb
REMARK  224 active torsions:
REMARK  status: ('A' for Active; 'I' for Inactive)
REMARK    1  A    between atoms: _1  and  _3
REMARK    2  A    between atoms: _3  and  _4
REMARK    3  A    between atoms: _3  and  _6
REMARK    4  A    between atoms: _9  and  _11
REMARK    5  A    between atoms: _11  and  _12
REMARK    6  A    between atoms: _11  and  _14
REMARK    7  A    between atoms: _14  and  _15
REMARK    8  A    between atoms: _15  and  _16
REMARK    9  A    between atoms: _19  and  _21
REMARK   10  A    between atoms: _21  and  _22
REMARK   11  A    between atoms: _24  and  _26
REMARK   12  A    between atoms: _26  and  _27
REMARK   13  A    between atoms: _26  and  _29
REMARK   14  A    between atoms: _29  and  _30
REMARK   15  A    between atoms: _36  and  _38
REMARK   16  A    between atoms: _38  and  _39
REMARK   17  A    between atoms: _38  and  _41
REMARK   18  A    between atoms: _41  and  _42
REMARK   19  A    between atoms: _47  and  _48
REMARK   20  A    between atoms: _50  and  _52
REMARK   21  A    between atoms: _52  and  _53
REMARK   22  A    between atoms: _55  and  _57
REMARK   23  A    between atoms: _57  and  _58
REMARK   24  A    between atoms: _62  and  _63
REMARK   25  A    between atoms: _68  and  _70
REMARK   26  A    between atoms: _70  and  _71
REMARK   27  A    between atoms: _70  and  _73
REMARK   28  A    between atoms: _73  and  _74
REMARK   29  A    between atoms: _74  and  _75
REMARK   30  A    between atoms: _75  and  _76
REMARK   31  A    between atoms: _76  and  _77
REMARK   32  A    between atoms: _81  and  _83
REMARK   33  A    between atoms: _83  and  _84
REMARK   34  A    between atoms: _83  and  _86
REMARK   35  A    between atoms: _86  and  _87
REMARK   36  A    between atoms: _90  and  _92
REMARK   37  A    between atoms: _92  and  _93
REMARK   38  A    between atoms: _92  and  _95
REMARK   39  A    between atoms: _95  and  _96
REMARK   40  A    between atoms: _96  and  _97
REMARK   41  A    between atoms: _97  and  _98
REMARK   42  A    between atoms: _107  and  _109
REMARK   43  A    between atoms: _109  and  _110
REMARK   44  A    between atoms: _109  and  _112
REMARK   45  A    between atoms: _112  and  _113
REMARK   46  A    between atoms: _115  and  _117
REMARK   47  A    between atoms: _117  and  _118
REMARK   48  A    between atoms: _117  and  _120
REMARK   49  A    between atoms: _120  and  _121
REMARK   50  A    between atoms: _126  and  _127
REMARK   51  A    between atoms: _129  and  _131
REMARK   52  A    between atoms: _131  and  _132
REMARK   53  A    between atoms: _131  and  _134
REMARK   54  A    between atoms: _134  and  _135
REMARK   55  A    between atoms: _145  and  _147
REMARK   56  A    between atoms: _147  and  _148
REMARK   57  A    between atoms: _147  and  _150
REMARK   58  A    between atoms: _150  and  _151
REMARK   59  A    between atoms: _154  and  _156
REMARK   60  A    between atoms: _156  and  _157
REMARK   61  A    between atoms: _156  and  _159
REMARK   62  A    between atoms: _159  and  _160
REMARK   63  A    between atoms: _163  and  _165
REMARK   64  A    between atoms: _165  and  _166
REMARK   65  A    between atoms: _165  and  _168
REMARK   66  A    between atoms: _168  and  _169
REMARK   67  A    between atoms: _172  and  _174
REMARK   68  A    between atoms: _174  and  _175
REMARK   69  A    between atoms: _174  and  _177
REMARK   70  A    between atoms: _177  and  _178
REMARK   71  A    between atoms: _181  and  _183
REMARK   72  A    between atoms: _183  and  _184
REMARK   73  A    between atoms: _183  and  _186
REMARK   74  A    between atoms: _190  and  _191
REMARK   75  A    between atoms: _196  and  _198
REMARK   76  A    between atoms: _198  and  _199
REMARK   77  A    between atoms: _198  and  _201
REMARK   78  A    between atoms: _201  and  _202
REMARK   79  A    between atoms: _205  and  _207
REMARK   80  A    between atoms: _207  and  _208
REMARK   81  A    between atoms: _207  and  _210
REMARK   82  A    between atoms: _210  and  _211
REMARK   83  A    between atoms: _211  and  _212
REMARK   84  A    between atoms: _215  and  _217
REMARK   85  A    between atoms: _217  and  _218
REMARK   86  A    between atoms: _217  and  _220
REMARK   87  A    between atoms: _220  and  _221
REMARK   88  A    between atoms: _226  and  _227
REMARK   89  A    between atoms: _229  and  _231
REMARK   90  A    between atoms: _231  and  _232
REMARK   91  A    between atoms: _231  and  _234
REMARK   92  A    between atoms: _234  and  _235
REMARK   93  A    between atoms: _238  and  _240
REMARK   94  A    between atoms: _240  and  _241
REMARK   95  A    between atoms: _240  and  _243
REMARK   96  A    between atoms: _243  and  _244
REMARK   97  A    between atoms: _244  and  _245
REMARK   98  A    between atoms: _247  and  _249
REMARK   99  A    between atoms: _249  and  _250
REMARK  100  A    between atoms: _249  and  _252
REMARK  101  A    between atoms: _252  and  _253
REMARK  102  A    between atoms: _263  and  _265
REMARK  103  A    between atoms: _265  and  _266
REMARK  104  A    between atoms: _265  and  _268
REMARK  105  A    between atoms: _268  and  _269
REMARK  106  A    between atoms: _272  and  _274
REMARK  107  A    between atoms: _274  and  _275
REMARK  108  A    between atoms: _277  and  _279
REMARK  109  A    between atoms: _279  and  _280
REMARK  110  A    between atoms: _282  and  _284
REMARK  111  A    between atoms: _284  and  _285
REMARK  112  A    between atoms: _284  and  _287
REMARK  113  A    between atoms: _290  and  _292
REMARK  114  A    between atoms: _292  and  _293
REMARK  115  A    between atoms: _292  and  _295
REMARK  116  A    between atoms: _298  and  _300
REMARK  117  A    between atoms: _300  and  _301
REMARK  118  A    between atoms: _300  and  _303
REMARK  119  A    between atoms: _306  and  _308
REMARK  120  A    between atoms: _308  and  _309
REMARK  121  A    between atoms: _308  and  _311
REMARK  122  A    between atoms: _311  and  _312
REMARK  123  A    between atoms: _322  and  _324
REMARK  124  A    between atoms: _324  and  _325
REMARK  125  A    between atoms: _324  and  _327
REMARK  126  A    between atoms: _327  and  _328
REMARK  127  A    between atoms: _338  and  _340
REMARK  128  A    between atoms: _340  and  _341
REMARK  129  A    between atoms: _340  and  _343
REMARK  130  A    between atoms: _343  and  _344
REMARK  131  A    between atoms: _349  and  _351
REMARK  132  A    between atoms: _351  and  _352
REMARK  133  A    between atoms: _351  and  _354
REMARK  134  A    between atoms: _354  and  _355
REMARK  135  A    between atoms: _360  and  _361
REMARK  136  A    between atoms: _363  and  _365
REMARK  137  A    between atoms: _365  and  _366
REMARK  138  A    between atoms: _365  and  _368
REMARK  139  A    between atoms: _371  and  _373
REMARK  140  A    between atoms: _373  and  _374
REMARK  141  A    between atoms: _373  and  _376
REMARK  142  A    between atoms: _376  and  _377
REMARK  143  A    between atoms: _380  and  _382
REMARK  144  A    between atoms: _382  and  _383
REMARK  145  A    between atoms: _382  and  _385
REMARK  146  A    between atoms: _385  and  _386
REMARK  147  A    between atoms: _389  and  _391
REMARK  148  A    between atoms: _391  and  _392
REMARK  149  A    between atoms: _391  and  _394
REMARK  150  A    between atoms: _394  and  _395
REMARK  151  A    between atoms: _400  and  _401
REMARK  152  A    between atoms: _403  and  _405
REMARK  153  A    between atoms: _405  and  _406
REMARK  154  A    between atoms: _405  and  _408
REMARK  155  A    between atoms: _408  and  _409
REMARK  156  A    between atoms: _415  and  _417
REMARK  157  A    between atoms: _417  and  _418
REMARK  158  A    between atoms: _417  and  _420
REMARK  159  A    between atoms: _420  and  _421
REMARK  160  A    between atoms: _427  and  _428
REMARK  161  A    between atoms: _433  and  _435
REMARK  162  A    between atoms: _435  and  _436
REMARK  163  A    between atoms: _435  and  _438
REMARK  164  A    between atoms: _438  and  _439
REMARK  165  A    between atoms: _444  and  _446
REMARK  166  A    between atoms: _446  and  _447
REMARK  167  A    between atoms: _446  and  _449
REMARK  168  A    between atoms: _449  and  _450
REMARK  169  A    between atoms: _460  and  _462
REMARK  170  A    between atoms: _462  and  _463
REMARK  171  A    between atoms: _466  and  _468
REMARK  172  A    between atoms: _468  and  _469
REMARK  173  A    between atoms: _468  and  _471
REMARK  174  A    between atoms: _471  and  _472
REMARK  175  A    between atoms: _482  and  _484
REMARK  176  A    between atoms: _484  and  _485
REMARK  177  A    between atoms: _484  and  _487
REMARK  178  A    between atoms: _487  and  _488
REMARK  179  A    between atoms: _488  and  _489
REMARK  180  A    between atoms: _489  and  _490
REMARK  181  A    between atoms: _490  and  _491
REMARK  182  A    between atoms: _495  and  _497
REMARK  183  A    between atoms: _497  and  _498
REMARK  184  A    between atoms: _497  and  _500
REMARK  185  A    between atoms: _500  and  _501
REMARK  186  A    between atoms: _504  and  _506
REMARK  187  A    between atoms: _506  and  _507
REMARK  188  A    between atoms: _506  and  _509
REMARK  189  A    between atoms: _509  and  _510
REMARK  190  A    between atoms: _512  and  _514
REMARK  191  A    between atoms: _514  and  _515
REMARK  192  A    between atoms: _514  and  _517
REMARK  193  A    between atoms: _517  and  _518
REMARK  194  A    between atoms: _520  and  _522
REMARK  195  A    between atoms: _522  and  _523
REMARK  196  A    between atoms: _522  and  _525
REMARK  197  A    between atoms: _525  and  _526
REMARK  198  A    between atoms: _526  and  _527
REMARK  199  A    between atoms: _527  and  _528
REMARK  200  A    between atoms: _528  and  _529
REMARK  201  A    between atoms: _533  and  _535
REMARK  202  A    between atoms: _535  and  _536
REMARK  203  A    between atoms: _535  and  _538
REMARK  204  A    between atoms: _538  and  _539
REMARK  205  A    between atoms: _545  and  _547
REMARK  206  A    between atoms: _547  and  _548
REMARK  207  A    between atoms: _547  and  _550
REMARK  208  A    between atoms: _550  and  _551
REMARK  209  A    between atoms: _554  and  _556
REMARK  210  A    between atoms: _556  and  _557
REMARK  211  A    between atoms: _556  and  _559
REMARK  212  A    between atoms: _559  and  _560
REMARK  213  A    between atoms: _563  and  _565
REMARK  214  A    between atoms: _565  and  _566
REMARK  215  A    between atoms: _565  and  _568
REMARK  216  A    between atoms: _568  and  _569
REMARK  217  A    between atoms: _572  and  _574
REMARK  218  A    between atoms: _574  and  _575
REMARK  219  A    between atoms: _574  and  _577
REMARK  220  A    between atoms: _577  and  _578
REMARK  221  A    between atoms: _581  and  _583
REMARK  222  A    between atoms: _583  and  _584
REMARK  223  A    between atoms: _583  and  _586
REMARK  224  A    between atoms: _586  and  _587
REMARK                            x       y       z     vdW  Elec       q    Type
REMARK                         _______ _______ _______ _____ _____    ______ ____
ROOT
ATOM      1  NE  ARG A   1      33.809  50.571  18.326  0.00  0.00    -0.265 N 
ATOM      2  CZ  ARG A   1      32.507  50.804  18.112  0.00  0.00    +0.342 C 
ATOM      3  NH2 ARG A   1      31.812  51.687  18.847  0.00  0.00    -0.292 N 
ATOM      4 HH21 ARG A   1      32.284  52.214  19.609  0.00  0.00    +0.255 HD
ATOM      5 HH22 ARG A   1      30.802  51.844  18.654  0.00  0.00    +0.255 HD
ATOM      6  NH1 ARG A   1      31.895  50.149  17.138  0.00  0.00    -0.292 N 
ATOM      7 HH11 ARG A   1      30.885  50.315  16.955  0.00  0.00    +0.255 HD
ATOM      8 HH12 ARG A   1      32.424  49.469  16.556  0.00  0.00    +0.255 HD
ATOM      9  HE  ARG A   1      34.278  49.875  17.711  0.00  0.00    +0.259 HD
ENDROOT
BRANCH   1  10
ATOM     10  CD  ARG A   1      34.624  51.217  19.355  0.00  0.00    +0.174 C 
BRANCH  10  11
ATOM     11  CG  ARG A   1      34.836  52.695  19.036  0.00  0.00    +0.045 C 
BRANCH  11  12
ATOM     12  CB  ARG A   1      34.777  53.540  20.289  0.00  0.00    +0.029 C 
BRANCH  12  13
ATOM     13  CA  ARG A   1      35.586  54.843  20.227  0.00  0.00    +0.133 C 
BRANCH  13  14
ATOM     14  N   ARG A   1      35.548  55.517  21.541  0.00  0.00    -0.239 NA
ATOM     15  H   ARG A   1      34.838  56.259  21.702  0.00  0.00    +0.142 HD
ENDBRANCH  13  14
BRANCH  13  16
ATOM     16  C   ARG A   1      35.082  55.709  19.057  0.00  0.00    +0.224 C 
ATOM     17  O   ARG A   1      35.845  56.031  18.156  0.00  0.00    -0.287 OA
ENDBRANCH  13  16
ENDBRANCH  12  13
ENDBRANCH  11  12
ENDBRANCH  10  11
ENDBRANCH   1  10
TORSDOF 6
REMARK  Name = ../refined-set-2016/2j62/2j62_pocket.pdb
REMARK  224 active torsions:
REMARK  status: ('A' for Active; 'I' for Inactive)
REMARK    1  A    between atoms: _1  and  _3
REMARK    2  A    between atoms: _3  and  _4
REMARK    3  A    between atoms: _3  and  _6
REMARK    4  A    between atoms: _9  and  _11
REMARK    5  A    between atoms: _11  and  _12
REMARK    6  A    between atoms: _11  and  _14
REMARK    7  A    between atoms: _14  and  _15
REMARK    8  A    between atoms: _15  and  _16
REMARK    9  A    between atoms: _19  and  _21
REMARK   10  A    between atoms: _21  and  _22
REMARK   11  A    between atoms: _24  and  _26
REMARK   12  A    between atoms: _26  and  _27
REMARK   13  A    between atoms: _26  and  _29
REMARK   14  A    between atoms: _29  and  _30
REMARK   15  A    between atoms: _36  and  _38
REMARK   16  A    between atoms: _38  and  _39
REMARK   17  A    between atoms: _38  and  _41
REMARK   18  A    between atoms: _41  and  _42
REMARK   19  A    between atoms: _47  and  _48
REMARK   20  A    between atoms: _50  and  _52
REMARK   21  A    between atoms: _52  and  _53
REMARK   22  A    between atoms: _55  and  _57
REMARK   23  A    between atoms: _57  and  _58
REMARK   24  A    between atoms: _62  and  _63
REMARK   25  A    between atoms: _68  and  _70
REMARK   26  A    between atoms: _70  and  _71
REMARK   27  A    between atoms: _70  and  _73
REMARK   28  A    between atoms: _73  and  _74
REMARK   29  A    between atoms: _74  and  _75
REMARK   30  A    between atoms: _75  and  _76
REMARK   31  A    between atoms: _76  and  _77
REMARK   32  A    between atoms: _81  and  _83
REMARK   33  A    between atoms: _83  and  _84
REMARK   34  A    between atoms: _83  and  _86
REMARK   35  A    between atoms: _86  and  _87
REMARK   36  A    between atoms: _90  and  _92
REMARK   37  A    between atoms: _92  and  _93
REMARK   38  A    between atoms: _92  and  _95
REMARK   39  A    between atoms: _95  and  _96
REMARK   40  A    between atoms: _96  and  _97
REMARK   41  A    between atoms: _97  and  _98
REMARK   42  A    between atoms: _107  and  _109
REMARK   43  A    between atoms: _109  and  _110
REMARK   44  A    between atoms: _109  and  _112
REMARK   45  A    between atoms: _112  and  _113
REMARK   46  A    between atoms: _115  and  _117
REMARK   47  A    between atoms: _117  and  _118
REMARK   48  A    between atoms: _117  and  _120
REMARK   49  A    between atoms: _120  and  _121
REMARK   50  A    between atoms: _126  and  _127
REMARK   51  A    between atoms: _129  and  _131
REMARK   52  A    between atoms: _131  and  _132
REMARK   53  A    between atoms: _131  and  _134
REMARK   54  A    between atoms: _134  and  _135
REMARK   55  A    between atoms: _145  and  _147
REMARK   56  A    between atoms: _147  and  _148
REMARK   57  A    between atoms: _147  and  _150
REMARK   58  A    between atoms: _150  and  _151
REMARK   59  A    between atoms: _154  and  _156
REMARK   60  A    between atoms: _156  and  _157
REMARK   61  A    between atoms: _156  and  _159
REMARK   62  A    between atoms: _159  and  _160
REMARK   63  A    between atoms: _163  and  _165
REMARK   64  A    between atoms: _165  and  _166
REMARK   65  A    between atoms: _165  and  _168
REMARK   66  A    between atoms: _168  and  _169
REMARK   67  A    between atoms: _172  and  _174
REMARK   68  A    between atoms: _174  and  _175
REMARK   69  A    between atoms: _174  and  _177
REMARK   70  A    between atoms: _177  and  _178
REMARK   71  A    between atoms: _181  and  _183
REMARK   72  A    between atoms: _183  and  _184
REMARK   73  A    between atoms: _183  and  _186
REMARK   74  A    between atoms: _190  and  _191
REMARK   75  A    between atoms: _196  and  _198
REMARK   76  A    between atoms: _198  and  _199
REMARK   77  A    between atoms: _198  and  _201
REMARK   78  A    between atoms: _201  and  _202
REMARK   79  A    between atoms: _205  and  _207
REMARK   80  A    between atoms: _207  and  _208
REMARK   81  A    between atoms: _207  and  _210
REMARK   82  A    between atoms: _210  and  _211
REMARK   83  A    between atoms: _211  and  _212
REMARK   84  A    between atoms: _215  and  _217
REMARK   85  A    between atoms: _217  and  _218
REMARK   86  A    between atoms: _217  and  _220
REMARK   87  A    between atoms: _220  and  _221
REMARK   88  A    between atoms: _226  and  _227
REMARK   89  A    between atoms: _229  and  _231
REMARK   90  A    between atoms: _231  and  _232
REMARK   91  A    between atoms: _231  and  _234
REMARK   92  A    between atoms: _234  and  _235
REMARK   93  A    between atoms: _238  and  _240
REMARK   94  A    between atoms: _240  and  _241
REMARK   95  A    between atoms: _240  and  _243
REMARK   96  A    between atoms: _243  and  _244
REMARK   97  A    between atoms: _244  and  _245
REMARK   98  A    between atoms: _247  and  _249
REMARK   99  A    between atoms: _249  and  _250
REMARK  100  A    between atoms: _249  and  _252
REMARK  101  A    between atoms: _252  and  _253
REMARK  102  A    between atoms: _263  and  _265
REMARK  103  A    between atoms: _265  and  _266
REMARK  104  A    between atoms: _265  and  _268
REMARK  105  A    between atoms: _268  and  _269
REMARK  106  A    between atoms: _272  and  _274
REMARK  107  A    between atoms: _274  and  _275
REMARK  108  A    between atoms: _277  and  _279
REMARK  109  A    between atoms: _279  and  _280
REMARK  110  A    between atoms: _282  and  _284
REMARK  111  A    between atoms: _284  and  _285
REMARK  112  A    between atoms: _284  and  _287
REMARK  113  A    between atoms: _290  and  _292
REMARK  114  A    between atoms: _292  and  _293
REMARK  115  A    between atoms: _292  and  _295
REMARK  116  A    between atoms: _298  and  _300
REMARK  117  A    between atoms: _300  and  _301
REMARK  118  A    between atoms: _300  and  _303
REMARK  119  A    between atoms: _306  and  _308
REMARK  120  A    between atoms: _308  and  _309
REMARK  121  A    between atoms: _308  and  _311
REMARK  122  A    between atoms: _311  and  _312
REMARK  123  A    between atoms: _322  and  _324
REMARK  124  A    between atoms: _324  and  _325
REMARK  125  A    between atoms: _324  and  _327
REMARK  126  A    between atoms: _327  and  _328
REMARK  127  A    between atoms: _338  and  _340
REMARK  128  A    between atoms: _340  and  _341
REMARK  129  A    between atoms: _340  and  _343
REMARK  130  A    between atoms: _343  and  _344
REMARK  131  A    between atoms: _349  and  _351
REMARK  132  A    between atoms: _351  and  _352
REMARK  133  A    between atoms: _351  and  _354
REMARK  134  A    between atoms: _354  and  _355
REMARK  135  A    between atoms: _360  and  _361
REMARK  136  A    between atoms: _363  and  _365
REMARK  137  A    between atoms: _365  and  _366
REMARK  138  A    between atoms: _365  and  _368
REMARK  139  A    between atoms: _371  and  _373
REMARK  140  A    between atoms: _373  and  _374
REMARK  141  A    between atoms: _373  and  _376
REMARK  142  A    between atoms: _376  and  _377
REMARK  143  A    between atoms: _380  and  _382
REMARK  144  A    between atoms: _382  and  _383
REMARK  145  A    between atoms: _382  and  _385
REMARK  146  A    between atoms: _385  and  _386
REMARK  147  A    between atoms: _389  and  _391
REMARK  148  A    between atoms: _391  and  _392
REMARK  149  A    between atoms: _391  and  _394
REMARK  150  A    between atoms: _394  and  _395
REMARK  151  A    between atoms: _400  and  _401
REMARK  152  A    between atoms: _403  and  _405
REMARK  153  A    between atoms: _405  and  _406
REMARK  154  A    between atoms: _405  and  _408
REMARK  155  A    between atoms: _408  and  _409
REMARK  156  A    between atoms: _415  and  _417
REMARK  157  A    between atoms: _417  and  _418
REMARK  158  A    between atoms: _417  and  _420
REMARK  159  A    between atoms: _420  and  _421
REMARK  160  A    between atoms: _427  and  _428
REMARK  161  A    between atoms: _433  and  _435
REMARK  162  A    between atoms: _435  and  _436
REMARK  163  A    between atoms: _435  and  _438
REMARK  164  A    between atoms: _438  and  _439
REMARK  165  A    between atoms: _444  and  _446
REMARK  166  A    between atoms: _446  and  _447
REMARK  167  A    between atoms: _446  and  _449
REMARK  168  A    between atoms: _449  and  _450
REMARK  169  A    between atoms: _460  and  _462
REMARK  170  A    between atoms: _462  and  _463
REMARK  171  A    between atoms: _466  and  _468
REMARK  172  A    between atoms: _468  and  _469
REMARK  173  A    between atoms: _468  and  _471
REMARK  174  A    between atoms: _471  and  _472
REMARK  175  A    between atoms: _482  and  _484
REMARK  176  A    between atoms: _484  and  _485
REMARK  177  A    between atoms: _484  and  _487
REMARK  178  A    between atoms: _487  and  _488
REMARK  179  A    between atoms: _488  and  _489
REMARK  180  A    between atoms: _489  and  _490
REMARK  181  A    between atoms: _490  and  _491
REMARK  182  A    between atoms: _495  and  _497
REMARK  183  A    between atoms: _497  and  _498
REMARK  184  A    between atoms: _497  and  _500
REMARK  185  A    between atoms: _500  and  _501
REMARK  186  A    between atoms: _504  and  _506
REMARK  187  A    between atoms: _506  and  _507
REMARK  188  A    between atoms: _506  and  _509
REMARK  189  A    between atoms: _509  and  _510
REMARK  190  A    between atoms: _512  and  _514
REMARK  191  A    between atoms: _514  and  _515
REMARK  192  A    between atoms: _514  and  _517
REMARK  193  A    between atoms: _517  and  _518
REMARK  194  A    between atoms: _520  and  _522
REMARK  195  A    between atoms: _522  and  _523
REMARK  196  A    between atoms: _522  and  _525
REMARK  197  A    between atoms: _525  and  _526
REMARK  198  A    between atoms: _526  and  _527
REMARK  199  A    between atoms: _527  and  _528
REMARK  200  A    between atoms: _528  and  _529
REMARK  201  A    between atoms: _533  and  _535
REMARK  202  A    between atoms: _535  and  _536
REMARK  203  A    between atoms: _535  and  _538
REMARK  204  A    between atoms: _538  and  _539
REMARK  205  A    between atoms: _545  and  _547
REMARK  206  A    between atoms: _547  and  _548
REMARK  207  A    between atoms: _547  and  _550
REMARK  208  A    between atoms: _550  and  _551
REMARK  209  A    between atoms: _554  and  _556
REMARK  210  A    between atoms: _556  and  _557
REMARK  211  A    between atoms: _556  and  _559
REMARK  212  A    between atoms: _559  and  _560
REMARK  213  A    between atoms: _563  and  _565
REMARK  214  A    between atoms: _565  and  _566
REMARK  215  A    between atoms: _565  and  _568
REMARK  216  A    between atoms: _568  and  _569
REMARK  217  A    between atoms: _572  and  _574
REMARK  218  A    between atoms: _574  and  _575
REMARK  219  A    between atoms: _574  and  _577
REMARK  220  A    between atoms: _577  and  _578
REMARK  221  A    between atoms: _581  and  _583
REMARK  222  A    between atoms: _583  and  _584
REMARK  223  A    between atoms: _583  and  _586
REMARK  224  A    between atoms: _586  and  _587
REMARK                            x       y       z     vdW  Elec       q    Type
REMARK                         _______ _______ _______ _____ _____    ______ ____
ROOT
ATOM      1  CA  SER A   1      39.473  51.894  20.686  0.00  0.00    +0.163 C 
ENDROOT
BRANCH   1   2
ATOM      2  N   SER A   1      39.767  52.715  21.873  0.00  0.00    -0.237 NA
ATOM      3  H   SER A   1      39.197  53.568  22.042  0.00  0.00    +0.142 HD
ENDBRANCH   1   2
BRANCH   1   4
ATOM      4  C   SER A   1      39.520  52.777  19.424  0.00  0.00    +0.227 C 
ATOM      5  O   SER A   1      38.493  53.276  18.975  0.00  0.00    -0.287 OA
ENDBRANCH   1   4
BRANCH   1   6
ATOM      6  CB  SER A   1      38.086  51.238  20.821  0.00  0.00    +0.162 C 
BRANCH   6   7
ATOM      7  OG  SER A   1      38.075  50.283  21.871  0.00  0.00    -0.380 OA
ATOM      8  H   SER A   1      37.175  49.877  21.937  0.00  0.00    +0.211 HD
ENDBRANCH   6   7
ENDBRANCH   1   6
TORSDOF 4
REMARK  Name = ../refined-set-2016/2j62/2j62_pocket.pdb
REMARK  224 active torsions:
REMARK  status: ('A' for Active; 'I' for Inactive)
REMARK    1  A    between atoms: _1  and  _3
REMARK    2  A    between atoms: _3  and  _4
REMARK    3  A    between atoms: _3  and  _6
REMARK    4  A    between atoms: _9  and  _11
REMARK    5  A    between atoms: _11  and  _12
REMARK    6  A    between atoms: _11  and  _14
REMARK    7  A    between atoms: _14  and  _15
REMARK    8  A    between atoms: _15  and  _16
REMARK    9  A    between atoms: _19  and  _21
REMARK   10  A    between atoms: _21  and  _22
REMARK   11  A    between atoms: _24  and  _26
REMARK   12  A    between atoms: _26  and  _27
REMARK   13  A    between atoms: _26  and  _29
REMARK   14  A    between atoms: _29  and  _30
REMARK   15  A    between atoms: _36  and  _38
REMARK   16  A    between atoms: _38  and  _39
REMARK   17  A    between atoms: _38  and  _41
REMARK   18  A    between atoms: _41  and  _42
REMARK   19  A    between atoms: _47  and  _48
REMARK   20  A    between atoms: _50  and  _52
REMARK   21  A    between atoms: _52  and  _53
REMARK   22  A    between atoms: _55  and  _57
REMARK   23  A    between atoms: _57  and  _58
REMARK   24  A    between atoms: _62  and  _63
REMARK   25  A    between atoms: _68  and  _70
REMARK   26  A    between atoms: _70  and  _71
REMARK   27  A    between atoms: _70  and  _73
REMARK   28  A    between atoms: _73  and  _74
REMARK   29  A    between atoms: _74  and  _75
REMARK   30  A    between atoms: _75  and  _76
REMARK   31  A    between atoms: _76  and  _77
REMARK   32  A    between atoms: _81  and  _83
REMARK   33  A    between atoms: _83  and  _84
REMARK   34  A    between atoms: _83  and  _86
REMARK   35  A    between atoms: _86  and  _87
REMARK   36  A    between atoms: _90  and  _92
REMARK   37  A    between atoms: _92  and  _93
REMARK   38  A    between atoms: _92  and  _95
REMARK   39  A    between atoms: _95  and  _96
REMARK   40  A    between atoms: _96  and  _97
REMARK   41  A    between atoms: _97  and  _98
REMARK   42  A    between atoms: _107  and  _109
REMARK   43  A    between atoms: _109  and  _110
REMARK   44  A    between atoms: _109  and  _112
REMARK   45  A    between atoms: _112  and  _113
REMARK   46  A    between atoms: _115  and  _117
REMARK   47  A    between atoms: _117  and  _118
REMARK   48  A    between atoms: _117  and  _120
REMARK   49  A    between atoms: _120  and  _121
REMARK   50  A    between atoms: _126  and  _127
REMARK   51  A    between atoms: _129  and  _131
REMARK   52  A    between atoms: _131  and  _132
REMARK   53  A    between atoms: _131  and  _134
REMARK   54  A    between atoms: _134  and  _135
REMARK   55  A    between atoms: _145  and  _147
REMARK   56  A    between atoms: _147  and  _148
REMARK   57  A    between atoms: _147  and  _150
REMARK   58  A    between atoms: _150  and  _151
REMARK   59  A    between atoms: _154  and  _156
REMARK   60  A    between atoms: _156  and  _157
REMARK   61  A    between atoms: _156  and  _159
REMARK   62  A    between atoms: _159  and  _160
REMARK   63  A    between atoms: _163  and  _165
REMARK   64  A    between atoms: _165  and  _166
REMARK   65  A    between atoms: _165  and  _168
REMARK   66  A    between atoms: _168  and  _169
REMARK   67  A    between atoms: _172  and  _174
REMARK   68  A    between atoms: _174  and  _175
REMARK   69  A    between atoms: _174  and  _177
REMARK   70  A    between atoms: _177  and  _178
REMARK   71  A    between atoms: _181  and  _183
REMARK   72  A    between atoms: _183  and  _184
REMARK   73  A    between atoms: _183  and  _186
REMARK   74  A    between atoms: _190  and  _191
REMARK   75  A    between atoms: _196  and  _198
REMARK   76  A    between atoms: _198  and  _199
REMARK   77  A    between atoms: _198  and  _201
REMARK   78  A    between atoms: _201  and  _202
REMARK   79  A    between atoms: _205  and  _207
REMARK   80  A    between atoms: _207  and  _208
REMARK   81  A    between atoms: _207  and  _210
REMARK   82  A    between atoms: _210  and  _211
REMARK   83  A    between atoms: _211  and  _212
REMARK   84  A    between atoms: _215  and  _217
REMARK   85  A    between atoms: _217  and  _218
REMARK   86  A    between atoms: _217  and  _220
REMARK   87  A    between atoms: _220  and  _221
REMARK   88  A    between atoms: _226  and  _227
REMARK   89  A    between atoms: _229  and  _231
REMARK   90  A    between atoms: _231  and  _232
REMARK   91  A    between atoms: _231  and  _234
REMARK   92  A    between atoms: _234  and  _235
REMARK   93  A    between atoms: _238  and  _240
REMARK   94  A    between atoms: _240  and  _241
REMARK   95  A    between atoms: _240  and  _243
REMARK   96  A    between atoms: _243  and  _244
REMARK   97  A    between atoms: _244  and  _245
REMARK   98  A    between atoms: _247  and  _249
REMARK   99  A    between atoms: _249  and  _250
REMARK  100  A    between atoms: _249  and  _252
REMARK  101  A    between atoms: _252  and  _253
REMARK  102  A    between atoms: _263  and  _265
REMARK  103  A    between atoms: _265  and  _266
REMARK  104  A    between atoms: _265  and  _268
REMARK  105  A    between atoms: _268  and  _269
REMARK  106  A    between atoms: _272  and  _274
REMARK  107  A    between atoms: _274  and  _275
REMARK  108  A    between atoms: _277  and  _279
REMARK  109  A    between atoms: _279  and  _280
REMARK  110  A    between atoms: _282  and  _284
REMARK  111  A    between atoms: _284  and  _285
REMARK  112  A    between atoms: _284  and  _287
REMARK  113  A    between atoms: _290  and  _292
REMARK  114  A    between atoms: _292  and  _293
REMARK  115  A    between atoms: _292  and  _295
REMARK  116  A    between atoms: _298  and  _300
REMARK  117  A    between atoms: _300  and  _301
REMARK  118  A    between atoms: _300  and  _303
REMARK  119  A    between atoms: _306  and  _308
REMARK  120  A    between atoms: _308  and  _309
REMARK  121  A    between atoms: _308  and  _311
REMARK  122  A    between atoms: _311  and  _312
REMARK  123  A    between atoms: _322  and  _324
REMARK  124  A    between atoms: _324  and  _325
REMARK  125  A    between atoms: _324  and  _327
REMARK  126  A    between atoms: _327  and  _328
REMARK  127  A    between atoms: _338  and  _340
REMARK  128  A    between atoms: _340  and  _341
REMARK  129  A    between atoms: _340  and  _343
REMARK  130  A    between atoms: _343  and  _344
REMARK  131  A    between atoms: _349  and  _351
REMARK  132  A    between atoms: _351  and  _352
REMARK  133  A    between atoms: _351  and  _354
REMARK  134  A    between atoms: _354  and  _355
REMARK  135  A    between atoms: _360  and  _361
REMARK  136  A    between atoms: _363  and  _365
REMARK  137  A    between atoms: _365  and  _366
REMARK  138  A    between atoms: _365  and  _368
REMARK  139  A    between atoms: _371  and  _373
REMARK  140  A    between atoms: _373  and  _374
REMARK  141  A    between atoms: _373  and  _376
REMARK  142  A    between atoms: _376  and  _377
REMARK  143  A    between atoms: _380  and  _382
REMARK  144  A    between atoms: _382  and  _383
REMARK  145  A    between atoms: _382  and  _385
REMARK  146  A    between atoms: _385  and  _386
REMARK  147  A    between atoms: _389  and  _391
REMARK  148  A    between atoms: _391  and  _392
REMARK  149  A    between atoms: _391  and  _394
REMARK  150  A    between atoms: _394  and  _395
REMARK  151  A    between atoms: _400  and  _401
REMARK  152  A    between atoms: _403  and  _405
REMARK  153  A    between atoms: _405  and  _406
REMARK  154  A    between atoms: _405  and  _408
REMARK  155  A    between atoms: _408  and  _409
REMARK  156  A    between atoms: _415  and  _417
REMARK  157  A    between atoms: _417  and  _418
REMARK  158  A    between atoms: _417  and  _420
REMARK  159  A    between atoms: _420  and  _421
REMARK  160  A    between atoms: _427  and  _428
REMARK  161  A    between atoms: _433  and  _435
REMARK  162  A    between atoms: _435  and  _436
REMARK  163  A    between atoms: _435  and  _438
REMARK  164  A    between atoms: _438  and  _439
REMARK  165  A    between atoms: _444  and  _446
REMARK  166  A    between atoms: _446  and  _447
REMARK  167  A    between atoms: _446  and  _449
REMARK  168  A    between atoms: _449  and  _450
REMARK  169  A    between atoms: _460  and  _462
REMARK  170  A    between atoms: _462  and  _463
REMARK  171  A    between atoms: _466  and  _468
REMARK  172  A    between atoms: _468  and  _469
REMARK  173  A    between atoms: _468  and  _471
REMARK  174  A    between atoms: _471  and  _472
REMARK  175  A    between atoms: _482  and  _484
REMARK  176  A    between atoms: _484  and  _485
REMARK  177  A    between atoms: _484  and  _487
REMARK  178  A    between atoms: _487  and  _488
REMARK  179  A    between atoms: _488  and  _489
REMARK  180  A    between atoms: _489  and  _490
REMARK  181  A    between atoms: _490  and  _491
REMARK  182  A    between atoms: _495  and  _497
REMARK  183  A    between atoms: _497  and  _498
REMARK  184  A    between atoms: _497  and  _500
REMARK  185  A    between atoms: _500  and  _501
REMARK  186  A    between atoms: _504  and  _506
REMARK  187  A    between atoms: _506  and  _507
REMARK  188  A    between atoms: _506  and  _509
REMARK  189  A    between atoms: _509  and  _510
REMARK  190  A    between atoms: _512  and  _514
REMARK  191  A    between atoms: _514  and  _515
REMARK  192  A    between atoms: _514  and  _517
REMARK  193  A    between atoms: _517  and  _518
REMARK  194  A    between atoms: _520  and  _522
REMARK  195  A    between atoms: _522  and  _523
REMARK  196  A    between atoms: _522  and  _525
REMARK  197  A    between atoms: _525  and  _526
REMARK  198  A    between atoms: _526  and  _527
REMARK  199  A    between atoms: _527  and  _528
REMARK  200  A    between atoms: _528  and  _529
REMARK  201  A    between atoms: _533  and  _535
REMARK  202  A    between atoms: _535  and  _536
REMARK  203  A    between atoms: _535  and  _538
REMARK  204  A    between atoms: _538  and  _539
REMARK  205  A    between atoms: _545  and  _547
REMARK  206  A    between atoms: _547  and  _548
REMARK  207  A    between atoms: _547  and  _550
REMARK  208  A    between atoms: _550  and  _551
REMARK  209  A    between atoms: _554  and  _556
REMARK  210  A    between atoms: _556  and  _557
REMARK  211  A    between atoms: _556  and  _559
REMARK  212  A    between atoms: _559  and  _560
REMARK  213  A    between atoms: _563  and  _565
REMARK  214  A    between atoms: _565  and  _566
REMARK  215  A    between atoms: _565  and  _568
REMARK  216  A    between atoms: _568  and  _569
REMARK  217  A    between atoms: _572  and  _574
REMARK  218  A    between atoms: _574  and  _575
REMARK  219  A    between atoms: _574  and  _577
REMARK  220  A    between atoms: _577  and  _578
REMARK  221  A    between atoms: _581  and  _583
REMARK  222  A    between atoms: _583  and  _584
REMARK  223  A    between atoms: _583  and  _586
REMARK  224  A    between atoms: _586  and  _587
REMARK                            x       y       z     vdW  Elec       q    Type
REMARK                         _______ _______ _______ _____ _____    ______ ____
ROOT
ATOM      1  C   TRP A   2      40.419  45.809  17.228  0.00  0.00    +0.241 C 
ATOM      2  N   ASP A   3      39.458  45.502  18.100  0.00  0.00    -0.297 N 
ATOM      3  H   ASP A   3      39.477  45.962  19.033  0.00  0.00    +0.150 HD
ATOM      4  O   TRP A   2      40.447  45.395  16.058  0.00  0.00    -0.273 OA
ENDROOT
BRANCH   2   5
ATOM      5  CA  ASP A   3      38.377  44.555  17.820  0.00  0.00    +0.160 C 
BRANCH   5   6
ATOM      6  C   ASP A   3      37.237  45.180  17.041  0.00  0.00    +0.241 C 
ATOM      7  O   ASP A   3      37.037  46.401  17.084  0.00  0.00    -0.273 OA
ATOM      8  N   ASP A   4      36.487  44.323  16.340  0.00  0.00    -0.297 N 
ATOM      9  H   ASP A   4      36.780  43.326  16.307  0.00  0.00    +0.150 HD
BRANCH   8  10
ATOM     10  CA  ASP A   4      35.277  44.712  15.618  0.00  0.00    +0.160 C 
BRANCH  10  11
ATOM     11  C   ASP A   4      35.467  45.793  14.552  0.00  0.00    +0.241 C 
ATOM     12  O   ASP A   4      34.564  46.628  14.368  0.00  0.00    -0.273 OA
ATOM     13  N   ILE A   5      36.625  45.806  13.880  0.00  0.00    -0.298 N 
ATOM     14  H   ILE A   5      37.366  45.126  14.147  0.00  0.00    +0.150 HD
BRANCH  13  15
ATOM     15  CA  ILE A   5      36.891  46.749  12.774  0.00  0.00    +0.137 C 
BRANCH  15  16
ATOM     16  C   ILE A   5      37.162  46.034  11.450  0.00  0.00    +0.227 C 
ATOM     17  O   ILE A   5      37.492  44.841  11.424  0.00  0.00    -0.286 OA
ENDBRANCH  15  16
BRANCH  15  18
ATOM     18  CB  ILE A   5      38.085  47.712  13.077  0.00  0.00    +0.026 C 
ATOM     19  CG2 ILE A   5      37.690  48.716  14.154  0.00  0.00    +0.002 C 
BRANCH  18  20
ATOM     20  CG1 ILE A   5      39.345  46.911  13.442  0.00  0.00    +0.002 C 
ATOM     21  CD1 ILE A   5      40.662  47.717  13.470  0.00  0.00    +0.000 C 
ENDBRANCH  18  20
ENDBRANCH  15  18
ENDBRANCH  13  15
ENDBRANCH  10  11
BRANCH  10  22
ATOM     22  CB  ASP A   4      34.210  45.179  16.616  0.00  0.00    +0.143 C 
BRANCH  22  23
ATOM     23  CG  ASP A   4      33.622  44.041  17.437  0.00  0.00    +0.367 C 
ATOM     24  OD2 ASP A   4      32.667  44.320  18.185  0.00  0.00    -0.246 OA
ATOM     25  OD1 ASP A   4      34.110  42.886  17.345  0.00  0.00    -0.246 OA
ENDBRANCH  22  23
ENDBRANCH  10  22
ENDBRANCH   8  10
ENDBRANCH   5   6
BRANCH   5  26
ATOM     26  CB  ASP A   3      37.802  44.001  19.131  0.00  0.00    +0.143 C 
BRANCH  26  27
ATOM     27  CG  ASP A   3      37.140  45.092  19.994  0.00  0.00    +0.367 C 
ATOM     28  OD2 ASP A   3      37.838  46.069  20.347  0.00  0.00    -0.246 OA
ATOM     29  OD1 ASP A   3      35.920  44.981  20.296  0.00  0.00    -0.246 OA
ENDBRANCH  26  27
ENDBRANCH   5  26
ENDBRANCH   2   5
BRANCH   1  30
ATOM     30  CA  TRP A   2      41.551  46.715  17.752  0.00  0.00    +0.153 C 
BRANCH  30  33
ATOM     31  C   TYR A   1      41.502  47.846  19.934  0.00  0.00    +0.239 C 
ATOM     32  O   TYR A   1      41.223  48.937  19.439  0.00  0.00    -0.274 OA
ATOM     33  N   TRP A   2      41.656  46.732  19.217  0.00  0.00    -0.297 N 
ATOM     34  H   TRP A   2      41.858  45.841  19.714  0.00  0.00    +0.150 HD
BRANCH  31  35
ATOM     35  CA  TYR A   1      41.700  47.714  21.431  0.00  0.00    +0.149 C 
BRANCH  35  36
ATOM     36  N   TYR A   1      42.467  48.831  21.980  0.00  0.00    -0.238 NA
ATOM     37  H   TYR A   1      42.026  49.772  22.014  0.00  0.00    +0.142 HD
ENDBRANCH  35  36
BRANCH  35  38
ATOM     38  CB  TYR A   1      40.357  47.610  22.163  0.00  0.00    +0.053 C 
BRANCH  38  39
ATOM     39  CG  TYR A   1      40.489  47.123  23.599  0.00  0.00    -0.020 A 
ATOM     40  CD2 TYR A   1      39.754  47.710  24.637  0.00  0.00    -0.001 A 
ATOM     41  CE2 TYR A   1      39.869  47.249  25.974  0.00  0.00    +0.036 A 
ATOM     42  CZ  TYR A   1      40.736  46.201  26.252  0.00  0.00    +0.134 A 
ATOM     43  CE1 TYR A   1      41.499  45.613  25.237  0.00  0.00    +0.036 A 
ATOM     44  CD1 TYR A   1      41.374  46.088  23.924  0.00  0.00    -0.001 A 
BRANCH  42  45
ATOM     45  OH  TYR A   1      40.853  45.743  27.537  0.00  0.00    -0.506 OA
ATOM     46  HH  TYR A   1      40.250  46.261  28.127  0.00  0.00    +0.292 HD
ENDBRANCH  42  45
ENDBRANCH  38  39
ENDBRANCH  35  38
ENDBRANCH  31  35
ENDBRANCH  30  33
BRANCH  30  47
ATOM     47  CB  TRP A   2      42.867  46.229  17.152  0.00  0.00    +0.057 C 
BRANCH  47  48
ATOM     48  CG  TRP A   2      44.017  47.082  17.495  0.00  0.00    -0.002 A 
ATOM     49  CD1 TRP A   2      45.019  46.799  18.389  0.00  0.00    +0.068 A 
ATOM     50  NE1 TRP A   2      45.909  47.845  18.442  0.00  0.00    -0.352 N 
ATOM     51  HE1 TRP A   2      46.764  47.880  19.033  0.00  0.00    +0.166 HD
ATOM     52  CE2 TRP A   2      45.490  48.836  17.591  0.00  0.00    +0.056 A 
ATOM     53  CZ2 TRP A   2      46.075  50.078  17.291  0.00  0.00    +0.017 A 
ATOM     54  CH2 TRP A   2      45.439  50.885  16.373  0.00  0.00    +0.001 A 
ATOM     55  CZ3 TRP A   2      44.250  50.480  15.737  0.00  0.00    +0.000 A 
ATOM     56  CE3 TRP A   2      43.664  49.228  16.031  0.00  0.00    +0.001 A 
ATOM     57  CD2 TRP A   2      44.294  48.395  16.980  0.00  0.00    +0.013 A 
ENDBRANCH  47  48
ENDBRANCH  30  47
ENDBRANCH   1  30
TORSDOF 21
REMARK  Name = ../refined-set-2016/2j62/2j62_pocket.pdb
REMARK  224 active torsions:
REMARK  status: ('A' for Active; 'I' for Inactive)
REMARK    1  A    between atoms: _1  and  _3
REMARK    2  A    between atoms: _3  and  _4
REMARK    3  A    between atoms: _3  and  _6
REMARK    4  A    between atoms: _9  and  _11
REMARK    5  A    between atoms: _11  and  _12
REMARK    6  A    between atoms: _11  and  _14
REMARK    7  A    between atoms: _14  and  _15
REMARK    8  A    between atoms: _15  and  _16
REMARK    9  A    between atoms: _19  and  _21
REMARK   10  A    between atoms: _21  and  _22
REMARK   11  A    between atoms: _24  and  _26
REMARK   12  A    between atoms: _26  and  _27
REMARK   13  A    between atoms: _26  and  _29
REMARK   14  A    between atoms: _29  and  _30
REMARK   15  A    between atoms: _36  and  _38
REMARK   16  A    between atoms: _38  and  _39
REMARK   17  A    between atoms: _38  and  _41
REMARK   18  A    between atoms: _41  and  _42
REMARK   19  A    between atoms: _47  and  _48
REMARK   20  A    between atoms: _50  and  _52
REMARK   21  A    between atoms: _52  and  _53
REMARK   22  A    between atoms: _55  and  _57
REMARK   23  A    between atoms: _57  and  _58
REMARK   24  A    between atoms: _62  and  _63
REMARK   25  A    between atoms: _68  and  _70
REMARK   26  A    between atoms: _70  and  _71
REMARK   27  A    between atoms: _70  and  _73
REMARK   28  A    between atoms: _73  and  _74
REMARK   29  A    between atoms: _74  and  _75
REMARK   30  A    between atoms: _75  and  _76
REMARK   31  A    between atoms: _76  and  _77
REMARK   32  A    between atoms: _81  and  _83
REMARK   33  A    between atoms: _83  and  _84
REMARK   34  A    between atoms: _83  and  _86
REMARK   35  A    between atoms: _86  and  _87
REMARK   36  A    between atoms: _90  and  _92
REMARK   37  A    between atoms: _92  and  _93
REMARK   38  A    between atoms: _92  and  _95
REMARK   39  A    between atoms: _95  and  _96
REMARK   40  A    between atoms: _96  and  _97
REMARK   41  A    between atoms: _97  and  _98
REMARK   42  A    between atoms: _107  and  _109
REMARK   43  A    between atoms: _109  and  _110
REMARK   44  A    between atoms: _109  and  _112
REMARK   45  A    between atoms: _112  and  _113
REMARK   46  A    between atoms: _115  and  _117
REMARK   47  A    between atoms: _117  and  _118
REMARK   48  A    between atoms: _117  and  _120
REMARK   49  A    between atoms: _120  and  _121
REMARK   50  A    between atoms: _126  and  _127
REMARK   51  A    between atoms: _129  and  _131
REMARK   52  A    between atoms: _131  and  _132
REMARK   53  A    between atoms: _131  and  _134
REMARK   54  A    between atoms: _134  and  _135
REMARK   55  A    between atoms: _145  and  _147
REMARK   56  A    between atoms: _147  and  _148
REMARK   57  A    between atoms: _147  and  _150
REMARK   58  A    between atoms: _150  and  _151
REMARK   59  A    between atoms: _154  and  _156
REMARK   60  A    between atoms: _156  and  _157
REMARK   61  A    between atoms: _156  and  _159
REMARK   62  A    between atoms: _159  and  _160
REMARK   63  A    between atoms: _163  and  _165
REMARK   64  A    between atoms: _165  and  _166
REMARK   65  A    between atoms: _165  and  _168
REMARK   66  A    between atoms: _168  and  _169
REMARK   67  A    between atoms: _172  and  _174
REMARK   68  A    between atoms: _174  and  _175
REMARK   69  A    between atoms: _174  and  _177
REMARK   70  A    between atoms: _177  and  _178
REMARK   71  A    between atoms: _181  and  _183
REMARK   72  A    between atoms: _183  and  _184
REMARK   73  A    between atoms: _183  and  _186
REMARK   74  A    between atoms: _190  and  _191
REMARK   75  A    between atoms: _196  and  _198
REMARK   76  A    between atoms: _198  and  _199
REMARK   77  A    between atoms: _198  and  _201
REMARK   78  A    between atoms: _201  and  _202
REMARK   79  A    between atoms: _205  and  _207
REMARK   80  A    between atoms: _207  and  _208
REMARK   81  A    between atoms: _207  and  _210
REMARK   82  A    between atoms: _210  and  _211
REMARK   83  A    between atoms: _211  and  _212
REMARK   84  A    between atoms: _215  and  _217
REMARK   85  A    between atoms: _217  and  _218
REMARK   86  A    between atoms: _217  and  _220
REMARK   87  A    between atoms: _220  and  _221
REMARK   88  A    between atoms: _226  and  _227
REMARK   89  A    between atoms: _229  and  _231
REMARK   90  A    between atoms: _231  and  _232
REMARK   91  A    between atoms: _231  and  _234
REMARK   92  A    between atoms: _234  and  _235
REMARK   93  A    between atoms: _238  and  _240
REMARK   94  A    between atoms: _240  and  _241
REMARK   95  A    between atoms: _240  and  _243
REMARK   96  A    between atoms: _243  and  _244
REMARK   97  A    between atoms: _244  and  _245
REMARK   98  A    between atoms: _247  and  _249
REMARK   99  A    between atoms: _249  and  _250
REMARK  100  A    between atoms: _249  and  _252
REMARK  101  A    between atoms: _252  and  _253
REMARK  102  A    between atoms: _263  and  _265
REMARK  103  A    between atoms: _265  and  _266
REMARK  104  A    between atoms: _265  and  _268
REMARK  105  A    between atoms: _268  and  _269
REMARK  106  A    between atoms: _272  and  _274
REMARK  107  A    between atoms: _274  and  _275
REMARK  108  A    between atoms: _277  and  _279
REMARK  109  A    between atoms: _279  and  _280
REMARK  110  A    between atoms: _282  and  _284
REMARK  111  A    between atoms: _284  and  _285
REMARK  112  A    between atoms: _284  and  _287
REMARK  113  A    between atoms: _290  and  _292
REMARK  114  A    between atoms: _292  and  _293
REMARK  115  A    between atoms: _292  and  _295
REMARK  116  A    between atoms: _298  and  _300
REMARK  117  A    between atoms: _300  and  _301
REMARK  118  A    between atoms: _300  and  _303
REMARK  119  A    between atoms: _306  and  _308
REMARK  120  A    between atoms: _308  and  _309
REMARK  121  A    between atoms: _308  and  _311
REMARK  122  A    between atoms: _311  and  _312
REMARK  123  A    between atoms: _322  and  _324
REMARK  124  A    between atoms: _324  and  _325
REMARK  125  A    between atoms: _324  and  _327
REMARK  126  A    between atoms: _327  and  _328
REMARK  127  A    between atoms: _338  and  _340
REMARK  128  A    between atoms: _340  and  _341
REMARK  129  A    between atoms: _340  and  _343
REMARK  130  A    between atoms: _343  and  _344
REMARK  131  A    between atoms: _349  and  _351
REMARK  132  A    between atoms: _351  and  _352
REMARK  133  A    between atoms: _351  and  _354
REMARK  134  A    between atoms: _354  and  _355
REMARK  135  A    between atoms: _360  and  _361
REMARK  136  A    between atoms: _363  and  _365
REMARK  137  A    between atoms: _365  and  _366
REMARK  138  A    between atoms: _365  and  _368
REMARK  139  A    between atoms: _371  and  _373
REMARK  140  A    between atoms: _373  and  _374
REMARK  141  A    between atoms: _373  and  _376
REMARK  142  A    between atoms: _376  and  _377
REMARK  143  A    between atoms: _380  and  _382
REMARK  144  A    between atoms: _382  and  _383
REMARK  145  A    between atoms: _382  and  _385
REMARK  146  A    between atoms: _385  and  _386
REMARK  147  A    between atoms: _389  and  _391
REMARK  148  A    between atoms: _391  and  _392
REMARK  149  A    between atoms: _391  and  _394
REMARK  150  A    between atoms: _394  and  _395
REMARK  151  A    between atoms: _400  and  _401
REMARK  152  A    between atoms: _403  and  _405
REMARK  153  A    between atoms: _405  and  _406
REMARK  154  A    between atoms: _405  and  _408
REMARK  155  A    between atoms: _408  and  _409
REMARK  156  A    between atoms: _415  and  _417
REMARK  157  A    between atoms: _417  and  _418
REMARK  158  A    between atoms: _417  and  _420
REMARK  159  A    between atoms: _420  and  _421
REMARK  160  A    between atoms: _427  and  _428
REMARK  161  A    between atoms: _433  and  _435
REMARK  162  A    between atoms: _435  and  _436
REMARK  163  A    between atoms: _435  and  _438
REMARK  164  A    between atoms: _438  and  _439
REMARK  165  A    between atoms: _444  and  _446
REMARK  166  A    between atoms: _446  and  _447
REMARK  167  A    between atoms: _446  and  _449
REMARK  168  A    between atoms: _449  and  _450
REMARK  169  A    between atoms: _460  and  _462
REMARK  170  A    between atoms: _462  and  _463
REMARK  171  A    between atoms: _466  and  _468
REMARK  172  A    between atoms: _468  and  _469
REMARK  173  A    between atoms: _468  and  _471
REMARK  174  A    between atoms: _471  and  _472
REMARK  175  A    between atoms: _482  and  _484
REMARK  176  A    between atoms: _484  and  _485
REMARK  177  A    between atoms: _484  and  _487
REMARK  178  A    between atoms: _487  and  _488
REMARK  179  A    between atoms: _488  and  _489
REMARK  180  A    between atoms: _489  and  _490
REMARK  181  A    between atoms: _490  and  _491
REMARK  182  A    between atoms: _495  and  _497
REMARK  183  A    between atoms: _497  and  _498
REMARK  184  A    between atoms: _497  and  _500
REMARK  185  A    between atoms: _500  and  _501
REMARK  186  A    between atoms: _504  and  _506
REMARK  187  A    between atoms: _506  and  _507
REMARK  188  A    between atoms: _506  and  _509
REMARK  189  A    between atoms: _509  and  _510
REMARK  190  A    between atoms: _512  and  _514
REMARK  191  A    between atoms: _514  and  _515
REMARK  192  A    between atoms: _514  and  _517
REMARK  193  A    between atoms: _517  and  _518
REMARK  194  A    between atoms: _520  and  _522
REMARK  195  A    between atoms: _522  and  _523
REMARK  196  A    between atoms: _522  and  _525
REMARK  197  A    between atoms: _525  and  _526
REMARK  198  A    between atoms: _526  and  _527
REMARK  199  A    between atoms: _527  and  _528
REMARK  200  A    between atoms: _528  and  _529
REMARK  201  A    between atoms: _533  and  _535
REMARK  202  A    between atoms: _535  and  _536
REMARK  203  A    between atoms: _535  and  _538
REMARK  204  A    between atoms: _538  and  _539
REMARK  205  A    between atoms: _545  and  _547
REMARK  206  A    between atoms: _547  and  _548
REMARK  207  A    between atoms: _547  and  _550
REMARK  208  A    between atoms: _550  and  _551
REMARK  209  A    between atoms: _554  and  _556
REMARK  210  A    between atoms: _556  and  _557
REMARK  211  A    between atoms: _556  and  _559
REMARK  212  A    between atoms: _559  and  _560
REMARK  213  A    between atoms: _563  and  _565
REMARK  214  A    between atoms: _565  and  _566
REMARK  215  A    between atoms: _565  and  _568
REMARK  216  A    between atoms: _568  and  _569
REMARK  217  A    between atoms: _572  and  _574
REMARK  218  A    between atoms: _574  and  _575
REMARK  219  A    between atoms: _574  and  _577
REMARK  220  A    between atoms: _577  and  _578
REMARK  221  A    between atoms: _581  and  _583
REMARK  222  A    between atoms: _583  and  _584
REMARK  223  A    between atoms: _583  and  _586
REMARK  224  A    between atoms: _586  and  _587
REMARK                            x       y       z     vdW  Elec       q    Type
REMARK                         _______ _______ _______ _____ _____    ______ ____
ROOT
ATOM      1  C   THR A   4      40.906  40.876  15.182  0.00  0.00    +0.243 C 
ATOM      2  O   THR A   4      39.710  40.617  15.164  0.00  0.00    -0.273 OA
ATOM      3  N   GLU A   5      41.856  39.944  15.078  0.00  0.00    -0.297 N 
ATOM      4  H   GLU A   5      42.824  40.233  14.832  0.00  0.00    +0.150 HD
ENDROOT
BRANCH   3   5
ATOM      5  CA  GLU A   5      41.572  38.530  15.301  0.00  0.00    +0.149 C 
BRANCH   5   6
ATOM      6  C   GLU A   5      41.785  38.226  16.793  0.00  0.00    +0.241 C 
ATOM      7  N   TYR A   6      40.725  37.834  17.488  0.00  0.00    -0.297 N 
ATOM      8  H   TYR A   6      39.824  37.658  17.000  0.00  0.00    +0.150 HD
ATOM      9  O   GLU A   5      42.906  38.350  17.308  0.00  0.00    -0.273 OA
BRANCH   7  10
ATOM     10  CA  TYR A   6      40.815  37.647  18.939  0.00  0.00    +0.153 C 
BRANCH  10  11
ATOM     11  C   TYR A   6      40.123  36.388  19.473  0.00  0.00    +0.241 C 
ATOM     12  O   TYR A   6      40.091  36.157  20.694  0.00  0.00    -0.273 OA
ATOM     13  N   ASP A   7      39.571  35.571  18.579  0.00  0.00    -0.298 N 
ATOM     14  H   ASP A   7      39.491  35.860  17.583  0.00  0.00    +0.150 HD
BRANCH  13  15
ATOM     15  CA  ASP A   7      39.077  34.262  19.009  0.00  0.00    +0.148 C 
BRANCH  15  16
ATOM     16  C   ASP A   7      39.787  33.229  18.153  0.00  0.00    +0.227 C 
ATOM     17  O   ASP A   7      40.137  33.517  17.004  0.00  0.00    -0.286 OA
ENDBRANCH  15  16
BRANCH  15  18
ATOM     18  CB  ASP A   7      37.549  34.178  18.874  0.00  0.00    +0.142 C 
BRANCH  18  19
ATOM     19  CG  ASP A   7      37.084  34.163  17.425  0.00  0.00    +0.367 C 
ATOM     20  OD2 ASP A   7      36.940  33.053  16.871  0.00  0.00    -0.246 OA
ATOM     21  OD1 ASP A   7      36.891  35.250  16.834  0.00  0.00    -0.246 OA
ENDBRANCH  18  19
ENDBRANCH  15  18
ENDBRANCH  13  15
ENDBRANCH  10  11
BRANCH  10  22
ATOM     22  CB  TYR A   6      40.280  38.878  19.675  0.00  0.00    +0.055 C 
BRANCH  22  23
ATOM     23  CG  TYR A   6      38.847  39.183  19.309  0.00  0.00    -0.020 A 
ATOM     24  CD2 TYR A   6      37.791  38.423  19.829  0.00  0.00    -0.001 A 
ATOM     25  CE2 TYR A   6      36.476  38.692  19.462  0.00  0.00    +0.036 A 
ATOM     26  CZ  TYR A   6      36.214  39.709  18.568  0.00  0.00    +0.134 A 
ATOM     27  CE1 TYR A   6      37.240  40.455  18.021  0.00  0.00    +0.036 A 
ATOM     28  CD1 TYR A   6      38.546  40.189  18.392  0.00  0.00    -0.001 A 
BRANCH  26  29
ATOM     29  OH  TYR A   6      34.912  39.971  18.196  0.00  0.00    -0.506 OA
ATOM     30  HH  TYR A   6      34.899  40.725  17.554  0.00  0.00    +0.292 HD
ENDBRANCH  26  29
ENDBRANCH  22  23
ENDBRANCH  10  22
ENDBRANCH   7  10
ENDBRANCH   5   6
BRANCH   5  31
ATOM     31  CB  GLU A   5      42.455  37.637  14.407  0.00  0.00    +0.041 C 
BRANCH  31  32
ATOM     32  CG  GLU A   5      42.232  37.881  12.900  0.00  0.00    +0.116 C 
BRANCH  32  33
ATOM     33  CD  GLU A   5      43.233  37.155  11.986  0.00  0.00    +0.365 C 
ATOM     34  OE2 GLU A   5      44.346  36.750  12.415  0.00  0.00    -0.246 OA
ATOM     35  OE1 GLU A   5      42.906  37.007  10.800  0.00  0.00    -0.246 OA
ENDBRANCH  32  33
ENDBRANCH  31  32
ENDBRANCH   5  31
ENDBRANCH   3   5
BRANCH   1  36
ATOM     36  CA  THR A   4      41.364  42.335  15.309  0.00  0.00    +0.176 C 
BRANCH  36  39
ATOM     37  C   PRO A   3      42.607  41.993  17.360  0.00  0.00    +0.241 C 
ATOM     38  O   PRO A   3      41.648  41.433  17.881  0.00  0.00    -0.273 OA
ATOM     39  N   THR A   4      42.567  42.472  16.117  0.00  0.00    -0.295 N 
ATOM     40  H   THR A   4      43.403  42.948  15.721  0.00  0.00    +0.150 HD
BRANCH  37  47
ATOM     41  C   VAL A   2      43.204  43.134  20.228  0.00  0.00    +0.244 C 
ATOM     42  O   VAL A   2      43.046  44.223  19.655  0.00  0.00    -0.273 OA
ATOM     43  N   PRO A   3      43.683  42.051  19.585  0.00  0.00    -0.272 N 
ATOM     44  CD  PRO A   3      44.028  40.726  20.144  0.00  0.00    +0.094 C 
ATOM     45  CG  PRO A   3      45.051  40.220  19.166  0.00  0.00    +0.024 C 
ATOM     46  CB  PRO A   3      44.829  40.929  17.842  0.00  0.00    +0.031 C 
ATOM     47  CA  PRO A   3      43.917  42.131  18.133  0.00  0.00    +0.152 C 
BRANCH  41  48
ATOM     48  CA  VAL A   2      42.912  42.988  21.740  0.00  0.00    +0.149 C 
BRANCH  48  51
ATOM     49  C   THR A   1      44.546  43.759  23.423  0.00  0.00    +0.241 C 
ATOM     50  O   THR A   1      44.592  42.691  24.059  0.00  0.00    -0.274 OA
ATOM     51  N   VAL A   2      43.680  44.005  22.437  0.00  0.00    -0.297 N 
ATOM     52  H   VAL A   2      43.546  44.995  22.148  0.00  0.00    +0.150 HD
BRANCH  49  53
ATOM     53  CA  THR A   1      45.468  44.947  23.785  0.00  0.00    +0.172 C 
BRANCH  53  54
ATOM     54  N   THR A   1      46.051  44.861  25.115  0.00  0.00    -0.236 NA
ATOM     55  H   THR A   1      46.368  43.936  25.469  0.00  0.00    +0.142 HD
ENDBRANCH  53  54
BRANCH  53  56
ATOM     56  CB  THR A   1      46.576  45.174  22.712  0.00  0.00    +0.135 C 
ATOM     57  CG2 THR A   1      47.356  43.919  22.475  0.00  0.00    +0.034 C 
BRANCH  56  58
ATOM     58  OG1 THR A   1      45.969  45.581  21.488  0.00  0.00    -0.383 OA
ATOM     59  HG1 THR A   1      45.469  46.423  21.633  0.00  0.00    +0.210 HD
ENDBRANCH  56  58
ENDBRANCH  53  56
ENDBRANCH  49  53
ENDBRANCH  48  51
BRANCH  48  60
ATOM     60  CB  VAL A   2      41.386  43.098  22.014  0.00  0.00    +0.027 C 
ATOM     61  CG2 VAL A   2      41.078  42.813  23.451  0.00  0.00    +0.002 C 
ATOM     62  CG1 VAL A   2      40.595  42.100  21.142  0.00  0.00    +0.002 C 
ENDBRANCH  48  60
ENDBRANCH  41  48
ENDBRANCH  37  47
ENDBRANCH  36  39
BRANCH  36  63
ATOM     63  CB  THR A   4      41.511  42.959  13.930  0.00  0.00    +0.137 C 
ATOM     64  CG2 THR A   4      40.128  43.079  13.278  0.00  0.00    +0.034 C 
BRANCH  63  65
ATOM     65  OG1 THR A   4      42.081  44.264  14.051  0.00  0.00    -0.382 OA
ATOM     66  HG1 THR A   4      41.490  44.831  14.607  0.00  0.00    +0.210 HD
ENDBRANCH  63  65
ENDBRANCH  36  63
ENDBRANCH   1  36
TORSDOF 26
REMARK  Name = ../refined-set-2016/2j62/2j62_pocket.pdb
REMARK  224 active torsions:
REMARK  status: ('A' for Active; 'I' for Inactive)
REMARK    1  A    between atoms: _1  and  _3
REMARK    2  A    between atoms: _3  and  _4
REMARK    3  A    between atoms: _3  and  _6
REMARK    4  A    between atoms: _9  and  _11
REMARK    5  A    between atoms: _11  and  _12
REMARK    6  A    between atoms: _11  and  _14
REMARK    7  A    between atoms: _14  and  _15
REMARK    8  A    between atoms: _15  and  _16
REMARK    9  A    between atoms: _19  and  _21
REMARK   10  A    between atoms: _21  and  _22
REMARK   11  A    between atoms: _24  and  _26
REMARK   12  A    between atoms: _26  and  _27
REMARK   13  A    between atoms: _26  and  _29
REMARK   14  A    between atoms: _29  and  _30
REMARK   15  A    between atoms: _36  and  _38
REMARK   16  A    between atoms: _38  and  _39
REMARK   17  A    between atoms: _38  and  _41
REMARK   18  A    between atoms: _41  and  _42
REMARK   19  A    between atoms: _47  and  _48
REMARK   20  A    between atoms: _50  and  _52
REMARK   21  A    between atoms: _52  and  _53
REMARK   22  A    between atoms: _55  and  _57
REMARK   23  A    between atoms: _57  and  _58
REMARK   24  A    between atoms: _62  and  _63
REMARK   25  A    between atoms: _68  and  _70
REMARK   26  A    between atoms: _70  and  _71
REMARK   27  A    between atoms: _70  and  _73
REMARK   28  A    between atoms: _73  and  _74
REMARK   29  A    between atoms: _74  and  _75
REMARK   30  A    between atoms: _75  and  _76
REMARK   31  A    between atoms: _76  and  _77
REMARK   32  A    between atoms: _81  and  _83
REMARK   33  A    between atoms: _83  and  _84
REMARK   34  A    between atoms: _83  and  _86
REMARK   35  A    between atoms: _86  and  _87
REMARK   36  A    between atoms: _90  and  _92
REMARK   37  A    between atoms: _92  and  _93
REMARK   38  A    between atoms: _92  and  _95
REMARK   39  A    between atoms: _95  and  _96
REMARK   40  A    between atoms: _96  and  _97
REMARK   41  A    between atoms: _97  and  _98
REMARK   42  A    between atoms: _107  and  _109
REMARK   43  A    between atoms: _109  and  _110
REMARK   44  A    between atoms: _109  and  _112
REMARK   45  A    between atoms: _112  and  _113
REMARK   46  A    between atoms: _115  and  _117
REMARK   47  A    between atoms: _117  and  _118
REMARK   48  A    between atoms: _117  and  _120
REMARK   49  A    between atoms: _120  and  _121
REMARK   50  A    between atoms: _126  and  _127
REMARK   51  A    between atoms: _129  and  _131
REMARK   52  A    between atoms: _131  and  _132
REMARK   53  A    between atoms: _131  and  _134
REMARK   54  A    between atoms: _134  and  _135
REMARK   55  A    between atoms: _145  and  _147
REMARK   56  A    between atoms: _147  and  _148
REMARK   57  A    between atoms: _147  and  _150
REMARK   58  A    between atoms: _150  and  _151
REMARK   59  A    between atoms: _154  and  _156
REMARK   60  A    between atoms: _156  and  _157
REMARK   61  A    between atoms: _156  and  _159
REMARK   62  A    between atoms: _159  and  _160
REMARK   63  A    between atoms: _163  and  _165
REMARK   64  A    between atoms: _165  and  _166
REMARK   65  A    between atoms: _165  and  _168
REMARK   66  A    between atoms: _168  and  _169
REMARK   67  A    between atoms: _172  and  _174
REMARK   68  A    between atoms: _174  and  _175
REMARK   69  A    between atoms: _174  and  _177
REMARK   70  A    between atoms: _177  and  _178
REMARK   71  A    between atoms: _181  and  _183
REMARK   72  A    between atoms: _183  and  _184
REMARK   73  A    between atoms: _183  and  _186
REMARK   74  A    between atoms: _190  and  _191
REMARK   75  A    between atoms: _196  and  _198
REMARK   76  A    between atoms: _198  and  _199
REMARK   77  A    between atoms: _198  and  _201
REMARK   78  A    between atoms: _201  and  _202
REMARK   79  A    between atoms: _205  and  _207
REMARK   80  A    between atoms: _207  and  _208
REMARK   81  A    between atoms: _207  and  _210
REMARK   82  A    between atoms: _210  and  _211
REMARK   83  A    between atoms: _211  and  _212
REMARK   84  A    between atoms: _215  and  _217
REMARK   85  A    between atoms: _217  and  _218
REMARK   86  A    between atoms: _217  and  _220
REMARK   87  A    between atoms: _220  and  _221
REMARK   88  A    between atoms: _226  and  _227
REMARK   89  A    between atoms: _229  and  _231
REMARK   90  A    between atoms: _231  and  _232
REMARK   91  A    between atoms: _231  and  _234
REMARK   92  A    between atoms: _234  and  _235
REMARK   93  A    between atoms: _238  and  _240
REMARK   94  A    between atoms: _240  and  _241
REMARK   95  A    between atoms: _240  and  _243
REMARK   96  A    between atoms: _243  and  _244
REMARK   97  A    between atoms: _244  and  _245
REMARK   98  A    between atoms: _247  and  _249
REMARK   99  A    between atoms: _249  and  _250
REMARK  100  A    between atoms: _249  and  _252
REMARK  101  A    between atoms: _252  and  _253
REMARK  102  A    between atoms: _263  and  _265
REMARK  103  A    between atoms: _265  and  _266
REMARK  104  A    between atoms: _265  and  _268
REMARK  105  A    between atoms: _268  and  _269
REMARK  106  A    between atoms: _272  and  _274
REMARK  107  A    between atoms: _274  and  _275
REMARK  108  A    between atoms: _277  and  _279
REMARK  109  A    between atoms: _279  and  _280
REMARK  110  A    between atoms: _282  and  _284
REMARK  111  A    between atoms: _284  and  _285
REMARK  112  A    between atoms: _284  and  _287
REMARK  113  A    between atoms: _290  and  _292
REMARK  114  A    between atoms: _292  and  _293
REMARK  115  A    between atoms: _292  and  _295
REMARK  116  A    between atoms: _298  and  _300
REMARK  117  A    between atoms: _300  and  _301
REMARK  118  A    between atoms: _300  and  _303
REMARK  119  A    between atoms: _306  and  _308
REMARK  120  A    between atoms: _308  and  _309
REMARK  121  A    between atoms: _308  and  _311
REMARK  122  A    between atoms: _311  and  _312
REMARK  123  A    between atoms: _322  and  _324
REMARK  124  A    between atoms: _324  and  _325
REMARK  125  A    between atoms: _324  and  _327
REMARK  126  A    between atoms: _327  and  _328
REMARK  127  A    between atoms: _338  and  _340
REMARK  128  A    between atoms: _340  and  _341
REMARK  129  A    between atoms: _340  and  _343
REMARK  130  A    between atoms: _343  and  _344
REMARK  131  A    between atoms: _349  and  _351
REMARK  132  A    between atoms: _351  and  _352
REMARK  133  A    between atoms: _351  and  _354
REMARK  134  A    between atoms: _354  and  _355
REMARK  135  A    between atoms: _360  and  _361
REMARK  136  A    between atoms: _363  and  _365
REMARK  137  A    between atoms: _365  and  _366
REMARK  138  A    between atoms: _365  and  _368
REMARK  139  A    between atoms: _371  and  _373
REMARK  140  A    between atoms: _373  and  _374
REMARK  141  A    between atoms: _373  and  _376
REMARK  142  A    between atoms: _376  and  _377
REMARK  143  A    between atoms: _380  and  _382
REMARK  144  A    between atoms: _382  and  _383
REMARK  145  A    between atoms: _382  and  _385
REMARK  146  A    between atoms: _385  and  _386
REMARK  147  A    between atoms: _389  and  _391
REMARK  148  A    between atoms: _391  and  _392
REMARK  149  A    between atoms: _391  and  _394
REMARK  150  A    between atoms: _394  and  _395
REMARK  151  A    between atoms: _400  and  _401
REMARK  152  A    between atoms: _403  and  _405
REMARK  153  A    between atoms: _405  and  _406
REMARK  154  A    between atoms: _405  and  _408
REMARK  155  A    between atoms: _408  and  _409
REMARK  156  A    between atoms: _415  and  _417
REMARK  157  A    between atoms: _417  and  _418
REMARK  158  A    between atoms: _417  and  _420
REMARK  159  A    between atoms: _420  and  _421
REMARK  160  A    between atoms: _427  and  _428
REMARK  161  A    between atoms: _433  and  _435
REMARK  162  A    between atoms: _435  and  _436
REMARK  163  A    between atoms: _435  and  _438
REMARK  164  A    between atoms: _438  and  _439
REMARK  165  A    between atoms: _444  and  _446
REMARK  166  A    between atoms: _446  and  _447
REMARK  167  A    between atoms: _446  and  _449
REMARK  168  A    between atoms: _449  and  _450
REMARK  169  A    between atoms: _460  and  _462
REMARK  170  A    between atoms: _462  and  _463
REMARK  171  A    between atoms: _466  and  _468
REMARK  172  A    between atoms: _468  and  _469
REMARK  173  A    between atoms: _468  and  _471
REMARK  174  A    between atoms: _471  and  _472
REMARK  175  A    between atoms: _482  and  _484
REMARK  176  A    between atoms: _484  and  _485
REMARK  177  A    between atoms: _484  and  _487
REMARK  178  A    between atoms: _487  and  _488
REMARK  179  A    between atoms: _488  and  _489
REMARK  180  A    between atoms: _489  and  _490
REMARK  181  A    between atoms: _490  and  _491
REMARK  182  A    between atoms: _495  and  _497
REMARK  183  A    between atoms: _497  and  _498
REMARK  184  A    between atoms: _497  and  _500
REMARK  185  A    between atoms: _500  and  _501
REMARK  186  A    between atoms: _504  and  _506
REMARK  187  A    between atoms: _506  and  _507
REMARK  188  A    between atoms: _506  and  _509
REMARK  189  A    between atoms: _509  and  _510
REMARK  190  A    between atoms: _512  and  _514
REMARK  191  A    between atoms: _514  and  _515
REMARK  192  A    between atoms: _514  and  _517
REMARK  193  A    between atoms: _517  and  _518
REMARK  194  A    between atoms: _520  and  _522
REMARK  195  A    between atoms: _522  and  _523
REMARK  196  A    between atoms: _522  and  _525
REMARK  197  A    between atoms: _525  and  _526
REMARK  198  A    between atoms: _526  and  _527
REMARK  199  A    between atoms: _527  and  _528
REMARK  200  A    between atoms: _528  and  _529
REMARK  201  A    between atoms: _533  and  _535
REMARK  202  A    between atoms: _535  and  _536
REMARK  203  A    between atoms: _535  and  _538
REMARK  204  A    between atoms: _538  and  _539
REMARK  205  A    between atoms: _545  and  _547
REMARK  206  A    between atoms: _547  and  _548
REMARK  207  A    between atoms: _547  and  _550
REMARK  208  A    between atoms: _550  and  _551
REMARK  209  A    between atoms: _554  and  _556
REMARK  210  A    between atoms: _556  and  _557
REMARK  211  A    between atoms: _556  and  _559
REMARK  212  A    between atoms: _559  and  _560
REMARK  213  A    between atoms: _563  and  _565
REMARK  214  A    between atoms: _565  and  _566
REMARK  215  A    between atoms: _565  and  _568
REMARK  216  A    between atoms: _568  and  _569
REMARK  217  A    between atoms: _572  and  _574
REMARK  218  A    between atoms: _574  and  _575
REMARK  219  A    between atoms: _574  and  _577
REMARK  220  A    between atoms: _577  and  _578
REMARK  221  A    between atoms: _581  and  _583
REMARK  222  A    between atoms: _583  and  _584
REMARK  223  A    between atoms: _583  and  _586
REMARK  224  A    between atoms: _586  and  _587
REMARK                            x       y       z     vdW  Elec       q    Type
REMARK                         _______ _______ _______ _____ _____    ______ ____
ROOT
ATOM      1  CA  TRP A   2      41.622  36.592  23.429  0.00  0.00    +0.153 C 
ENDROOT
BRANCH   1   3
ATOM      2  C   MET A   1      42.977  38.513  24.069  0.00  0.00    +0.238 C 
ATOM      3  N   TRP A   2      42.398  37.357  24.391  0.00  0.00    -0.297 N 
ATOM      4  H   TRP A   2      42.504  36.991  25.359  0.00  0.00    +0.150 HD
ATOM      5  O   MET A   1      43.065  38.945  22.920  0.00  0.00    -0.274 OA
BRANCH   2   6
ATOM      6  CA  MET A   1      43.564  39.293  25.213  0.00  0.00    +0.146 C 
BRANCH   6   7
ATOM      7  N   MET A   1      44.784  39.968  24.761  0.00  0.00    -0.238 NA
ATOM      8  H   MET A   1      44.707  40.825  24.177  0.00  0.00    +0.142 HD
ENDBRANCH   6   7
BRANCH   6   9
ATOM      9  CB  MET A   1      42.489  40.270  25.731  0.00  0.00    +0.038 C 
BRANCH   9  10
ATOM     10  CG  MET A   1      42.993  41.376  26.639  0.00  0.00    +0.060 C 
BRANCH  10  11
ATOM     11  SD  MET A   1      41.653  42.364  27.336  0.00  0.00    -0.139 S 
ATOM     12  CE  MET A   1      41.356  41.425  28.862  0.00  0.00    +0.069 C 
ENDBRANCH  10  11
ENDBRANCH   9  10
ENDBRANCH   6   9
ENDBRANCH   2   6
ENDBRANCH   1   3
BRANCH   1  13
ATOM     13  C   TRP A   2      40.403  36.016  24.157  0.00  0.00    +0.241 C 
ATOM     14  O   TRP A   2      40.377  36.014  25.364  0.00  0.00    -0.273 OA
ATOM     15  N   THR A   3      39.380  35.596  23.429  0.00  0.00    -0.295 N 
ATOM     16  H   THR A   3      39.492  35.487  22.401  0.00  0.00    +0.150 HD
BRANCH  15  17
ATOM     17  CA  THR A   3      38.084  35.281  24.056  0.00  0.00    +0.176 C 
BRANCH  17  18
ATOM     18  C   THR A   3      37.866  33.778  24.255  0.00  0.00    +0.243 C 
ATOM     19  O   THR A   3      36.831  33.362  24.804  0.00  0.00    -0.273 OA
ATOM     20  N   GLY A   4      38.809  32.972  23.775  0.00  0.00    -0.296 N 
ATOM     21  H   GLY A   4      39.725  33.370  23.485  0.00  0.00    +0.150 HD
BRANCH  20  22
ATOM     22  CA  GLY A   4      38.575  31.528  23.649  0.00  0.00    +0.163 C 
BRANCH  22  23
ATOM     23  C   GLY A   4      38.423  31.052  22.221  0.00  0.00    +0.229 C 
ATOM     24  O   GLY A   4      38.721  31.805  21.281  0.00  0.00    -0.286 OA
ENDBRANCH  22  23
ENDBRANCH  20  22
ENDBRANCH  17  18
BRANCH  17  25
ATOM     25  CB  THR A   3      36.909  35.771  23.182  0.00  0.00    +0.137 C 
ATOM     26  CG2 THR A   3      36.853  37.278  23.089  0.00  0.00    +0.034 C 
BRANCH  25  27
ATOM     27  OG1 THR A   3      37.038  35.204  21.862  0.00  0.00    -0.382 OA
ATOM     28  HG1 THR A   3      37.019  34.216  21.925  0.00  0.00    +0.210 HD
ENDBRANCH  25  27
ENDBRANCH  17  25
ENDBRANCH  15  17
ENDBRANCH   1  13
BRANCH   1  29
ATOM     29  CB  TRP A   2      42.508  35.549  22.737  0.00  0.00    +0.057 C 
BRANCH  29  30
ATOM     30  CG  TRP A   2      42.316  34.090  23.095  0.00  0.00    -0.002 A 
ATOM     31  CD2 TRP A   2      42.668  33.447  24.331  0.00  0.00    +0.013 A 
ATOM     32  CE3 TRP A   2      43.205  33.902  25.551  0.00  0.00    +0.001 A 
ATOM     33  CZ3 TRP A   2      43.425  32.978  26.565  0.00  0.00    +0.000 A 
ATOM     34  CH2 TRP A   2      43.097  31.619  26.399  0.00  0.00    +0.001 A 
ATOM     35  CZ2 TRP A   2      42.589  31.141  25.213  0.00  0.00    +0.017 A 
ATOM     36  CE2 TRP A   2      42.367  32.076  24.186  0.00  0.00    +0.056 A 
ATOM     37  NE1 TRP A   2      41.869  31.901  22.926  0.00  0.00    -0.352 N 
ATOM     38  HE1 TRP A   2      41.555  30.996  22.521  0.00  0.00    +0.166 HD
ATOM     39  CD1 TRP A   2      41.850  33.116  22.279  0.00  0.00    +0.068 A 
ENDBRANCH  29  30
ENDBRANCH   1  29
TORSDOF 15
REMARK  Name = ../refined-set-2016/2j62/2j62_pocket.pdb
REMARK  224 active torsions:
REMARK  status: ('A' for Active; 'I' for Inactive)
REMARK    1  A    between atoms: _1  and  _3
REMARK    2  A    between atoms: _3  and  _4
REMARK    3  A    between atoms: _3  and  _6
REMARK    4  A    between atoms: _9  and  _11
REMARK    5  A    between atoms: _11  and  _12
REMARK    6  A    between atoms: _11  and  _14
REMARK    7  A    between atoms: _14  and  _15
REMARK    8  A    between atoms: _15  and  _16
REMARK    9  A    between atoms: _19  and  _21
REMARK   10  A    between atoms: _21  and  _22
REMARK   11  A    between atoms: _24  and  _26
REMARK   12  A    between atoms: _26  and  _27
REMARK   13  A    between atoms: _26  and  _29
REMARK   14  A    between atoms: _29  and  _30
REMARK   15  A    between atoms: _36  and  _38
REMARK   16  A    between atoms: _38  and  _39
REMARK   17  A    between atoms: _38  and  _41
REMARK   18  A    between atoms: _41  and  _42
REMARK   19  A    between atoms: _47  and  _48
REMARK   20  A    between atoms: _50  and  _52
REMARK   21  A    between atoms: _52  and  _53
REMARK   22  A    between atoms: _55  and  _57
REMARK   23  A    between atoms: _57  and  _58
REMARK   24  A    between atoms: _62  and  _63
REMARK   25  A    between atoms: _68  and  _70
REMARK   26  A    between atoms: _70  and  _71
REMARK   27  A    between atoms: _70  and  _73
REMARK   28  A    between atoms: _73  and  _74
REMARK   29  A    between atoms: _74  and  _75
REMARK   30  A    between atoms: _75  and  _76
REMARK   31  A    between atoms: _76  and  _77
REMARK   32  A    between atoms: _81  and  _83
REMARK   33  A    between atoms: _83  and  _84
REMARK   34  A    between atoms: _83  and  _86
REMARK   35  A    between atoms: _86  and  _87
REMARK   36  A    between atoms: _90  and  _92
REMARK   37  A    between atoms: _92  and  _93
REMARK   38  A    between atoms: _92  and  _95
REMARK   39  A    between atoms: _95  and  _96
REMARK   40  A    between atoms: _96  and  _97
REMARK   41  A    between atoms: _97  and  _98
REMARK   42  A    between atoms: _107  and  _109
REMARK   43  A    between atoms: _109  and  _110
REMARK   44  A    between atoms: _109  and  _112
REMARK   45  A    between atoms: _112  and  _113
REMARK   46  A    between atoms: _115  and  _117
REMARK   47  A    between atoms: _117  and  _118
REMARK   48  A    between atoms: _117  and  _120
REMARK   49  A    between atoms: _120  and  _121
REMARK   50  A    between atoms: _126  and  _127
REMARK   51  A    between atoms: _129  and  _131
REMARK   52  A    between atoms: _131  and  _132
REMARK   53  A    between atoms: _131  and  _134
REMARK   54  A    between atoms: _134  and  _135
REMARK   55  A    between atoms: _145  and  _147
REMARK   56  A    between atoms: _147  and  _148
REMARK   57  A    between atoms: _147  and  _150
REMARK   58  A    between atoms: _150  and  _151
REMARK   59  A    between atoms: _154  and  _156
REMARK   60  A    between atoms: _156  and  _157
REMARK   61  A    between atoms: _156  and  _159
REMARK   62  A    between atoms: _159  and  _160
REMARK   63  A    between atoms: _163  and  _165
REMARK   64  A    between atoms: _165  and  _166
REMARK   65  A    between atoms: _165  and  _168
REMARK   66  A    between atoms: _168  and  _169
REMARK   67  A    between atoms: _172  and  _174
REMARK   68  A    between atoms: _174  and  _175
REMARK   69  A    between atoms: _174  and  _177
REMARK   70  A    between atoms: _177  and  _178
REMARK   71  A    between atoms: _181  and  _183
REMARK   72  A    between atoms: _183  and  _184
REMARK   73  A    between atoms: _183  and  _186
REMARK   74  A    between atoms: _190  and  _191
REMARK   75  A    between atoms: _196  and  _198
REMARK   76  A    between atoms: _198  and  _199
REMARK   77  A    between atoms: _198  and  _201
REMARK   78  A    between atoms: _201  and  _202
REMARK   79  A    between atoms: _205  and  _207
REMARK   80  A    between atoms: _207  and  _208
REMARK   81  A    between atoms: _207  and  _210
REMARK   82  A    between atoms: _210  and  _211
REMARK   83  A    between atoms: _211  and  _212
REMARK   84  A    between atoms: _215  and  _217
REMARK   85  A    between atoms: _217  and  _218
REMARK   86  A    between atoms: _217  and  _220
REMARK   87  A    between atoms: _220  and  _221
REMARK   88  A    between atoms: _226  and  _227
REMARK   89  A    between atoms: _229  and  _231
REMARK   90  A    between atoms: _231  and  _232
REMARK   91  A    between atoms: _231  and  _234
REMARK   92  A    between atoms: _234  and  _235
REMARK   93  A    between atoms: _238  and  _240
REMARK   94  A    between atoms: _240  and  _241
REMARK   95  A    between atoms: _240  and  _243
REMARK   96  A    between atoms: _243  and  _244
REMARK   97  A    between atoms: _244  and  _245
REMARK   98  A    between atoms: _247  and  _249
REMARK   99  A    between atoms: _249  and  _250
REMARK  100  A    between atoms: _249  and  _252
REMARK  101  A    between atoms: _252  and  _253
REMARK  102  A    between atoms: _263  and  _265
REMARK  103  A    between atoms: _265  and  _266
REMARK  104  A    between atoms: _265  and  _268
REMARK  105  A    between atoms: _268  and  _269
REMARK  106  A    between atoms: _272  and  _274
REMARK  107  A    between atoms: _274  and  _275
REMARK  108  A    between atoms: _277  and  _279
REMARK  109  A    between atoms: _279  and  _280
REMARK  110  A    between atoms: _282  and  _284
REMARK  111  A    between atoms: _284  and  _285
REMARK  112  A    between atoms: _284  and  _287
REMARK  113  A    between atoms: _290  and  _292
REMARK  114  A    between atoms: _292  and  _293
REMARK  115  A    between atoms: _292  and  _295
REMARK  116  A    between atoms: _298  and  _300
REMARK  117  A    between atoms: _300  and  _301
REMARK  118  A    between atoms: _300  and  _303
REMARK  119  A    between atoms: _306  and  _308
REMARK  120  A    between atoms: _308  and  _309
REMARK  121  A    between atoms: _308  and  _311
REMARK  122  A    between atoms: _311  and  _312
REMARK  123  A    between atoms: _322  and  _324
REMARK  124  A    between atoms: _324  and  _325
REMARK  125  A    between atoms: _324  and  _327
REMARK  126  A    between atoms: _327  and  _328
REMARK  127  A    between atoms: _338  and  _340
REMARK  128  A    between atoms: _340  and  _341
REMARK  129  A    between atoms: _340  and  _343
REMARK  130  A    between atoms: _343  and  _344
REMARK  131  A    between atoms: _349  and  _351
REMARK  132  A    between atoms: _351  and  _352
REMARK  133  A    between atoms: _351  and  _354
REMARK  134  A    between atoms: _354  and  _355
REMARK  135  A    between atoms: _360  and  _361
REMARK  136  A    between atoms: _363  and  _365
REMARK  137  A    between atoms: _365  and  _366
REMARK  138  A    between atoms: _365  and  _368
REMARK  139  A    between atoms: _371  and  _373
REMARK  140  A    between atoms: _373  and  _374
REMARK  141  A    between atoms: _373  and  _376
REMARK  142  A    between atoms: _376  and  _377
REMARK  143  A    between atoms: _380  and  _382
REMARK  144  A    between atoms: _382  and  _383
REMARK  145  A    between atoms: _382  and  _385
REMARK  146  A    between atoms: _385  and  _386
REMARK  147  A    between atoms: _389  and  _391
REMARK  148  A    between atoms: _391  and  _392
REMARK  149  A    between atoms: _391  and  _394
REMARK  150  A    between atoms: _394  and  _395
REMARK  151  A    between atoms: _400  and  _401
REMARK  152  A    between atoms: _403  and  _405
REMARK  153  A    between atoms: _405  and  _406
REMARK  154  A    between atoms: _405  and  _408
REMARK  155  A    between atoms: _408  and  _409
REMARK  156  A    between atoms: _415  and  _417
REMARK  157  A    between atoms: _417  and  _418
REMARK  158  A    between atoms: _417  and  _420
REMARK  159  A    between atoms: _420  and  _421
REMARK  160  A    between atoms: _427  and  _428
REMARK  161  A    between atoms: _433  and  _435
REMARK  162  A    between atoms: _435  and  _436
REMARK  163  A    between atoms: _435  and  _438
REMARK  164  A    between atoms: _438  and  _439
REMARK  165  A    between atoms: _444  and  _446
REMARK  166  A    between atoms: _446  and  _447
REMARK  167  A    between atoms: _446  and  _449
REMARK  168  A    between atoms: _449  and  _450
REMARK  169  A    between atoms: _460  and  _462
REMARK  170  A    between atoms: _462  and  _463
REMARK  171  A    between atoms: _466  and  _468
REMARK  172  A    between atoms: _468  and  _469
REMARK  173  A    between atoms: _468  and  _471
REMARK  174  A    between atoms: _471  and  _472
REMARK  175  A    between atoms: _482  and  _484
REMARK  176  A    between atoms: _484  and  _485
REMARK  177  A    between atoms: _484  and  _487
REMARK  178  A    between atoms: _487  and  _488
REMARK  179  A    between atoms: _488  and  _489
REMARK  180  A    between atoms: _489  and  _490
REMARK  181  A    between atoms: _490  and  _491
REMARK  182  A    between atoms: _495  and  _497
REMARK  183  A    between atoms: _497  and  _498
REMARK  184  A    between atoms: _497  and  _500
REMARK  185  A    between atoms: _500  and  _501
REMARK  186  A    between atoms: _504  and  _506
REMARK  187  A    between atoms: _506  and  _507
REMARK  188  A    between atoms: _506  and  _509
REMARK  189  A    between atoms: _509  and  _510
REMARK  190  A    between atoms: _512  and  _514
REMARK  191  A    between atoms: _514  and  _515
REMARK  192  A    between atoms: _514  and  _517
REMARK  193  A    between atoms: _517  and  _518
REMARK  194  A    between atoms: _520  and  _522
REMARK  195  A    between atoms: _522  and  _523
REMARK  196  A    between atoms: _522  and  _525
REMARK  197  A    between atoms: _525  and  _526
REMARK  198  A    between atoms: _526  and  _527
REMARK  199  A    between atoms: _527  and  _528
REMARK  200  A    between atoms: _528  and  _529
REMARK  201  A    between atoms: _533  and  _535
REMARK  202  A    between atoms: _535  and  _536
REMARK  203  A    between atoms: _535  and  _538
REMARK  204  A    between atoms: _538  and  _539
REMARK  205  A    between atoms: _545  and  _547
REMARK  206  A    between atoms: _547  and  _548
REMARK  207  A    between atoms: _547  and  _550
REMARK  208  A    between atoms: _550  and  _551
REMARK  209  A    between atoms: _554  and  _556
REMARK  210  A    between atoms: _556  and  _557
REMARK  211  A    between atoms: _556  and  _559
REMARK  212  A    between atoms: _559  and  _560
REMARK  213  A    between atoms: _563  and  _565
REMARK  214  A    between atoms: _565  and  _566
REMARK  215  A    between atoms: _565  and  _568
REMARK  216  A    between atoms: _568  and  _569
REMARK  217  A    between atoms: _572  and  _574
REMARK  218  A    between atoms: _574  and  _575
REMARK  219  A    between atoms: _574  and  _577
REMARK  220  A    between atoms: _577  and  _578
REMARK  221  A    between atoms: _581  and  _583
REMARK  222  A    between atoms: _583  and  _584
REMARK  223  A    between atoms: _583  and  _586
REMARK  224  A    between atoms: _586  and  _587
REMARK                            x       y       z     vdW  Elec       q    Type
REMARK                         _______ _______ _______ _____ _____    ______ ____
ROOT
ATOM      1  CA  VAL A   2      33.718  35.090  20.462  0.00  0.00    +0.148 C 
ENDROOT
BRANCH   1   4
ATOM      2  C   GLY A   1      34.737  32.866  20.406  0.00  0.00    +0.240 C 
ATOM      3  O   GLY A   1      35.222  32.992  21.537  0.00  0.00    -0.274 OA
ATOM      4  N   VAL A   2      34.028  33.815  19.811  0.00  0.00    -0.297 N 
ATOM      5  H   VAL A   2      33.679  33.648  18.846  0.00  0.00    +0.150 HD
BRANCH   2   6
ATOM      6  CA  GLY A   1      34.966  31.600  19.600  0.00  0.00    +0.169 C 
BRANCH   6   7
ATOM      7  N   GLY A   1      35.892  30.739  20.337  0.00  0.00    -0.236 NA
ATOM      8  H   GLY A   1      35.833  30.740  21.375  0.00  0.00    +0.142 HD
ENDBRANCH   6   7
ENDBRANCH   2   6
ENDBRANCH   1   4
BRANCH   1   9
ATOM      9  C   VAL A   2      32.880  34.914  21.743  0.00  0.00    +0.241 C 
ATOM     10  O   VAL A   2      33.231  35.457  22.792  0.00  0.00    -0.273 OA
ATOM     11  N   VAL A   3      31.767  34.180  21.619  0.00  0.00    -0.298 N 
ATOM     12  H   VAL A   3      31.478  33.911  20.657  0.00  0.00    +0.150 HD
BRANCH  11  13
ATOM     13  CA  VAL A   3      30.921  33.724  22.730  0.00  0.00    +0.137 C 
BRANCH  13  14
ATOM     14  CB  VAL A   3      29.509  34.351  22.657  0.00  0.00    +0.026 C 
ATOM     15  CG2 VAL A   3      28.567  33.880  23.840  0.00  0.00    +0.002 C 
ATOM     16  CG1 VAL A   3      29.600  35.864  22.600  0.00  0.00    +0.002 C 
ENDBRANCH  13  14
BRANCH  13  17
ATOM     17  C   VAL A   3      30.839  32.208  22.558  0.00  0.00    +0.227 C 
ATOM     18  O   VAL A   3      30.187  31.759  21.599  0.00  0.00    -0.286 OA
ENDBRANCH  13  17
ENDBRANCH  11  13
ENDBRANCH   1   9
BRANCH   1  19
ATOM     19  CB  VAL A   2      33.038  36.086  19.485  0.00  0.00    +0.027 C 
ATOM     20  CG2 VAL A   2      32.754  37.408  20.181  0.00  0.00    +0.002 C 
ATOM     21  CG1 VAL A   2      33.925  36.314  18.265  0.00  0.00    +0.002 C 
ENDBRANCH   1  19
TORSDOF 8
REMARK  Name = ../refined-set-2016/2j62/2j62_pocket.pdb
REMARK  224 active torsions:
REMARK  status: ('A' for Active; 'I' for Inactive)
REMARK    1  A    between atoms: _1  and  _3
REMARK    2  A    between atoms: _3  and  _4
REMARK    3  A    between atoms: _3  and  _6
REMARK    4  A    between atoms: _9  and  _11
REMARK    5  A    between atoms: _11  and  _12
REMARK    6  A    between atoms: _11  and  _14
REMARK    7  A    between atoms: _14  and  _15
REMARK    8  A    between atoms: _15  and  _16
REMARK    9  A    between atoms: _19  and  _21
REMARK   10  A    between atoms: _21  and  _22
REMARK   11  A    between atoms: _24  and  _26
REMARK   12  A    between atoms: _26  and  _27
REMARK   13  A    between atoms: _26  and  _29
REMARK   14  A    between atoms: _29  and  _30
REMARK   15  A    between atoms: _36  and  _38
REMARK   16  A    between atoms: _38  and  _39
REMARK   17  A    between atoms: _38  and  _41
REMARK   18  A    between atoms: _41  and  _42
REMARK   19  A    between atoms: _47  and  _48
REMARK   20  A    between atoms: _50  and  _52
REMARK   21  A    between atoms: _52  and  _53
REMARK   22  A    between atoms: _55  and  _57
REMARK   23  A    between atoms: _57  and  _58
REMARK   24  A    between atoms: _62  and  _63
REMARK   25  A    between atoms: _68  and  _70
REMARK   26  A    between atoms: _70  and  _71
REMARK   27  A    between atoms: _70  and  _73
REMARK   28  A    between atoms: _73  and  _74
REMARK   29  A    between atoms: _74  and  _75
REMARK   30  A    between atoms: _75  and  _76
REMARK   31  A    between atoms: _76  and  _77
REMARK   32  A    between atoms: _81  and  _83
REMARK   33  A    between atoms: _83  and  _84
REMARK   34  A    between atoms: _83  and  _86
REMARK   35  A    between atoms: _86  and  _87
REMARK   36  A    between atoms: _90  and  _92
REMARK   37  A    between atoms: _92  and  _93
REMARK   38  A    between atoms: _92  and  _95
REMARK   39  A    between atoms: _95  and  _96
REMARK   40  A    between atoms: _96  and  _97
REMARK   41  A    between atoms: _97  and  _98
REMARK   42  A    between atoms: _107  and  _109
REMARK   43  A    between atoms: _109  and  _110
REMARK   44  A    between atoms: _109  and  _112
REMARK   45  A    between atoms: _112  and  _113
REMARK   46  A    between atoms: _115  and  _117
REMARK   47  A    between atoms: _117  and  _118
REMARK   48  A    between atoms: _117  and  _120
REMARK   49  A    between atoms: _120  and  _121
REMARK   50  A    between atoms: _126  and  _127
REMARK   51  A    between atoms: _129  and  _131
REMARK   52  A    between atoms: _131  and  _132
REMARK   53  A    between atoms: _131  and  _134
REMARK   54  A    between atoms: _134  and  _135
REMARK   55  A    between atoms: _145  and  _147
REMARK   56  A    between atoms: _147  and  _148
REMARK   57  A    between atoms: _147  and  _150
REMARK   58  A    between atoms: _150  and  _151
REMARK   59  A    between atoms: _154  and  _156
REMARK   60  A    between atoms: _156  and  _157
REMARK   61  A    between atoms: _156  and  _159
REMARK   62  A    between atoms: _159  and  _160
REMARK   63  A    between atoms: _163  and  _165
REMARK   64  A    between atoms: _165  and  _166
REMARK   65  A    between atoms: _165  and  _168
REMARK   66  A    between atoms: _168  and  _169
REMARK   67  A    between atoms: _172  and  _174
REMARK   68  A    between atoms: _174  and  _175
REMARK   69  A    between atoms: _174  and  _177
REMARK   70  A    between atoms: _177  and  _178
REMARK   71  A    between atoms: _181  and  _183
REMARK   72  A    between atoms: _183  and  _184
REMARK   73  A    between atoms: _183  and  _186
REMARK   74  A    between atoms: _190  and  _191
REMARK   75  A    between atoms: _196  and  _198
REMARK   76  A    between atoms: _198  and  _199
REMARK   77  A    between atoms: _198  and  _201
REMARK   78  A    between atoms: _201  and  _202
REMARK   79  A    between atoms: _205  and  _207
REMARK   80  A    between atoms: _207  and  _208
REMARK   81  A    between atoms: _207  and  _210
REMARK   82  A    between atoms: _210  and  _211
REMARK   83  A    between atoms: _211  and  _212
REMARK   84  A    between atoms: _215  and  _217
REMARK   85  A    between atoms: _217  and  _218
REMARK   86  A    between atoms: _217  and  _220
REMARK   87  A    between atoms: _220  and  _221
REMARK   88  A    between atoms: _226  and  _227
REMARK   89  A    between atoms: _229  and  _231
REMARK   90  A    between atoms: _231  and  _232
REMARK   91  A    between atoms: _231  and  _234
REMARK   92  A    between atoms: _234  and  _235
REMARK   93  A    between atoms: _238  and  _240
REMARK   94  A    between atoms: _240  and  _241
REMARK   95  A    between atoms: _240  and  _243
REMARK   96  A    between atoms: _243  and  _244
REMARK   97  A    between atoms: _244  and  _245
REMARK   98  A    between atoms: _247  and  _249
REMARK   99  A    between atoms: _249  and  _250
REMARK  100  A    between atoms: _249  and  _252
REMARK  101  A    between atoms: _252  and  _253
REMARK  102  A    between atoms: _263  and  _265
REMARK  103  A    between atoms: _265  and  _266
REMARK  104  A    between atoms: _265  and  _268
REMARK  105  A    between atoms: _268  and  _269
REMARK  106  A    between atoms: _272  and  _274
REMARK  107  A    between atoms: _274  and  _275
REMARK  108  A    between atoms: _277  and  _279
REMARK  109  A    between atoms: _279  and  _280
REMARK  110  A    between atoms: _282  and  _284
REMARK  111  A    between atoms: _284  and  _285
REMARK  112  A    between atoms: _284  and  _287
REMARK  113  A    between atoms: _290  and  _292
REMARK  114  A    between atoms: _292  and  _293
REMARK  115  A    between atoms: _292  and  _295
REMARK  116  A    between atoms: _298  and  _300
REMARK  117  A    between atoms: _300  and  _301
REMARK  118  A    between atoms: _300  and  _303
REMARK  119  A    between atoms: _306  and  _308
REMARK  120  A    between atoms: _308  and  _309
REMARK  121  A    between atoms: _308  and  _311
REMARK  122  A    between atoms: _311  and  _312
REMARK  123  A    between atoms: _322  and  _324
REMARK  124  A    between atoms: _324  and  _325
REMARK  125  A    between atoms: _324  and  _327
REMARK  126  A    between atoms: _327  and  _328
REMARK  127  A    between atoms: _338  and  _340
REMARK  128  A    between atoms: _340  and  _341
REMARK  129  A    between atoms: _340  and  _343
REMARK  130  A    between atoms: _343  and  _344
REMARK  131  A    between atoms: _349  and  _351
REMARK  132  A    between atoms: _351  and  _352
REMARK  133  A    between atoms: _351  and  _354
REMARK  134  A    between atoms: _354  and  _355
REMARK  135  A    between atoms: _360  and  _361
REMARK  136  A    between atoms: _363  and  _365
REMARK  137  A    between atoms: _365  and  _366
REMARK  138  A    between atoms: _365  and  _368
REMARK  139  A    between atoms: _371  and  _373
REMARK  140  A    between atoms: _373  and  _374
REMARK  141  A    between atoms: _373  and  _376
REMARK  142  A    between atoms: _376  and  _377
REMARK  143  A    between atoms: _380  and  _382
REMARK  144  A    between atoms: _382  and  _383
REMARK  145  A    between atoms: _382  and  _385
REMARK  146  A    between atoms: _385  and  _386
REMARK  147  A    between atoms: _389  and  _391
REMARK  148  A    between atoms: _391  and  _392
REMARK  149  A    between atoms: _391  and  _394
REMARK  150  A    between atoms: _394  and  _395
REMARK  151  A    between atoms: _400  and  _401
REMARK  152  A    between atoms: _403  and  _405
REMARK  153  A    between atoms: _405  and  _406
REMARK  154  A    between atoms: _405  and  _408
REMARK  155  A    between atoms: _408  and  _409
REMARK  156  A    between atoms: _415  and  _417
REMARK  157  A    between atoms: _417  and  _418
REMARK  158  A    between atoms: _417  and  _420
REMARK  159  A    between atoms: _420  and  _421
REMARK  160  A    between atoms: _427  and  _428
REMARK  161  A    between atoms: _433  and  _435
REMARK  162  A    between atoms: _435  and  _436
REMARK  163  A    between atoms: _435  and  _438
REMARK  164  A    between atoms: _438  and  _439
REMARK  165  A    between atoms: _444  and  _446
REMARK  166  A    between atoms: _446  and  _447
REMARK  167  A    between atoms: _446  and  _449
REMARK  168  A    between atoms: _449  and  _450
REMARK  169  A    between atoms: _460  and  _462
REMARK  170  A    between atoms: _462  and  _463
REMARK  171  A    between atoms: _466  and  _468
REMARK  172  A    between atoms: _468  and  _469
REMARK  173  A    between atoms: _468  and  _471
REMARK  174  A    between atoms: _471  and  _472
REMARK  175  A    between atoms: _482  and  _484
REMARK  176  A    between atoms: _484  and  _485
REMARK  177  A    between atoms: _484  and  _487
REMARK  178  A    between atoms: _487  and  _488
REMARK  179  A    between atoms: _488  and  _489
REMARK  180  A    between atoms: _489  and  _490
REMARK  181  A    between atoms: _490  and  _491
REMARK  182  A    between atoms: _495  and  _497
REMARK  183  A    between atoms: _497  and  _498
REMARK  184  A    between atoms: _497  and  _500
REMARK  185  A    between atoms: _500  and  _501
REMARK  186  A    between atoms: _504  and  _506
REMARK  187  A    between atoms: _506  and  _507
REMARK  188  A    between atoms: _506  and  _509
REMARK  189  A    between atoms: _509  and  _510
REMARK  190  A    between atoms: _512  and  _514
REMARK  191  A    between atoms: _514  and  _515
REMARK  192  A    between atoms: _514  and  _517
REMARK  193  A    between atoms: _517  and  _518
REMARK  194  A    between atoms: _520  and  _522
REMARK  195  A    between atoms: _522  and  _523
REMARK  196  A    between atoms: _522  and  _525
REMARK  197  A    between atoms: _525  and  _526
REMARK  198  A    between atoms: _526  and  _527
REMARK  199  A    between atoms: _527  and  _528
REMARK  200  A    between atoms: _528  and  _529
REMARK  201  A    between atoms: _533  and  _535
REMARK  202  A    between atoms: _535  and  _536
REMARK  203  A    between atoms: _535  and  _538
REMARK  204  A    between atoms: _538  and  _539
REMARK  205  A    between atoms: _545  and  _547
REMARK  206  A    between atoms: _547  and  _548
REMARK  207  A    between atoms: _547  and  _550
REMARK  208  A    between atoms: _550  and  _551
REMARK  209  A    between atoms: _554  and  _556
REMARK  210  A    between atoms: _556  and  _557
REMARK  211  A    between atoms: _556  and  _559
REMARK  212  A    between atoms: _559  and  _560
REMARK  213  A    between atoms: _563  and  _565
REMARK  214  A    between atoms: _565  and  _566
REMARK  215  A    between atoms: _565  and  _568
REMARK  216  A    between atoms: _568  and  _569
REMARK  217  A    between atoms: _572  and  _574
REMARK  218  A    between atoms: _574  and  _575
REMARK  219  A    between atoms: _574  and  _577
REMARK  220  A    between atoms: _577  and  _578
REMARK  221  A    between atoms: _581  and  _583
REMARK  222  A    between atoms: _583  and  _584
REMARK  223  A    between atoms: _583  and  _586
REMARK  224  A    between atoms: _586  and  _587
REMARK                            x       y       z     vdW  Elec       q    Type
REMARK                         _______ _______ _______ _____ _____    ______ ____
ROOT
ATOM      1  CA  TRP A   3      35.396  36.329  28.615  0.00  0.00    +0.153 C 
ENDROOT
BRANCH   1   3
ATOM      2  C   TRP A   2      37.163  37.576  27.571  0.00  0.00    +0.241 C 
ATOM      3  N   TRP A   3      36.416  37.353  28.640  0.00  0.00    -0.297 N 
ATOM      4  H   TRP A   3      36.563  37.917  29.502  0.00  0.00    +0.150 HD
ATOM      5  O   TRP A   2      36.947  37.008  26.485  0.00  0.00    -0.273 OA
BRANCH   2   6
ATOM      6  CA  TRP A   2      38.318  38.586  27.734  0.00  0.00    +0.153 C 
BRANCH   6   9
ATOM      7  C   VAL A   1      40.211  37.533  28.812  0.00  0.00    +0.238 C 
ATOM      8  O   VAL A   1      40.077  38.190  29.846  0.00  0.00    -0.274 OA
ATOM      9  N   TRP A   2      39.530  37.791  27.701  0.00  0.00    -0.297 N 
ATOM     10  H   TRP A   2      39.872  37.417  26.793  0.00  0.00    +0.150 HD
BRANCH   7  11
ATOM     11  CA  VAL A   1      41.191  36.363  28.727  0.00  0.00    +0.145 C 
BRANCH  11  12
ATOM     12  CB  VAL A   1      40.596  35.147  29.514  0.00  0.00    +0.025 C 
ATOM     13  CG2 VAL A   1      41.352  33.839  29.198  0.00  0.00    +0.002 C 
ATOM     14  CG1 VAL A   1      39.126  34.943  29.169  0.00  0.00    +0.002 C 
ENDBRANCH  11  12
BRANCH  11  15
ATOM     15  N   VAL A   1      42.516  36.772  29.189  0.00  0.00    -0.238 NA
ATOM     16  H   VAL A   1      42.685  36.859  30.211  0.00  0.00    +0.142 HD
ENDBRANCH  11  15
ENDBRANCH   7  11
ENDBRANCH   6   9
BRANCH   6  17
ATOM     17  CB  TRP A   2      38.358  39.598  26.599  0.00  0.00    +0.057 C 
BRANCH  17  18
ATOM     18  CG  TRP A   2      37.087  40.340  26.339  0.00  0.00    -0.002 A 
ATOM     19  CD1 TRP A   2      35.828  39.810  26.159  0.00  0.00    +0.068 A 
ATOM     20  NE1 TRP A   2      34.926  40.814  25.913  0.00  0.00    -0.352 N 
ATOM     21  CE2 TRP A   2      35.586  42.019  25.900  0.00  0.00    +0.056 A 
ATOM     22  CZ2 TRP A   2      35.095  43.319  25.675  0.00  0.00    +0.017 A 
ATOM     23  CH2 TRP A   2      36.003  44.355  25.697  0.00  0.00    +0.001 A 
ATOM     24  CZ3 TRP A   2      37.378  44.122  25.968  0.00  0.00    +0.000 A 
ATOM     25  CE3 TRP A   2      37.867  42.826  26.175  0.00  0.00    +0.001 A 
ATOM     26  HE1 TRP A   2      33.905  40.684  25.761  0.00  0.00    +0.166 HD
ATOM     27  CD2 TRP A   2      36.958  41.755  26.151  0.00  0.00    +0.013 A 
ENDBRANCH  17  18
ENDBRANCH   6  17
ENDBRANCH   2   6
ENDBRANCH   1   3
BRANCH   1  28
ATOM     28  C   TRP A   3      34.020  36.947  28.447  0.00  0.00    +0.241 C 
ATOM     29  O   TRP A   3      33.550  37.653  29.346  0.00  0.00    -0.273 OA
ATOM     30  N   ASN A   4      33.381  36.674  27.296  0.00  0.00    -0.297 N 
ATOM     31  H   ASN A   4      33.838  36.030  26.619  0.00  0.00    +0.150 HD
BRANCH  30  32
ATOM     32  CA  ASN A   4      32.056  37.245  26.943  0.00  0.00    +0.158 C 
BRANCH  32  33
ATOM     33  C   ASN A   4      30.868  36.511  27.607  0.00  0.00    +0.241 C 
ATOM     34  N   TYR A   5      30.843  36.579  28.936  0.00  0.00    -0.298 N 
ATOM     35  H   TYR A   5      31.658  37.006  29.421  0.00  0.00    +0.150 HD
ATOM     36  O   ASN A   4      29.998  35.901  26.940  0.00  0.00    -0.273 OA
BRANCH  34  37
ATOM     37  CA  TYR A   5      29.731  36.086  29.754  0.00  0.00    +0.141 C 
BRANCH  37  38
ATOM     38  C   TYR A   5      30.009  36.727  31.089  0.00  0.00    +0.227 C 
ATOM     39  O   TYR A   5      31.113  36.603  31.565  0.00  0.00    -0.286 OA
ENDBRANCH  37  38
BRANCH  37  40
ATOM     40  CB  TYR A   5      29.742  34.552  29.862  0.00  0.00    +0.054 C 
BRANCH  40  41
ATOM     41  CG  TYR A   5      28.537  33.947  30.599  0.00  0.00    -0.020 A 
ATOM     42  CD2 TYR A   5      28.507  33.884  31.996  0.00  0.00    -0.001 A 
ATOM     43  CE2 TYR A   5      27.420  33.347  32.674  0.00  0.00    +0.036 A 
ATOM     44  CZ  TYR A   5      26.342  32.829  31.955  0.00  0.00    +0.134 A 
ATOM     45  CE1 TYR A   5      26.347  32.856  30.567  0.00  0.00    +0.036 A 
ATOM     46  CD1 TYR A   5      27.440  33.422  29.891  0.00  0.00    -0.001 A 
BRANCH  44  47
ATOM     47  OH  TYR A   5      25.290  32.263  32.642  0.00  0.00    -0.506 OA
ATOM     48  HH  TYR A   5      24.610  31.944  31.997  0.00  0.00    +0.292 HD
ENDBRANCH  44  47
ENDBRANCH  40  41
ENDBRANCH  37  40
ENDBRANCH  34  37
ENDBRANCH  32  33
BRANCH  32  49
ATOM     49  CB  ASN A   4      31.869  37.334  25.401  0.00  0.00    +0.114 C 
BRANCH  49  50
ATOM     50  CG  ASN A   4      32.580  38.543  24.777  0.00  0.00    +0.222 C 
ATOM     51  OD1 ASN A   4      32.480  39.674  25.266  0.00  0.00    -0.275 OA
ATOM     52  ND2 ASN A   4      33.299  38.303  23.689  0.00  0.00    -0.329 N 
ATOM     53 HD21 ASN A   4      33.359  37.337  23.308  0.00  0.00    +0.145 HD
ATOM     54 HD22 ASN A   4      33.803  39.081  23.217  0.00  0.00    +0.145 HD
ENDBRANCH  49  50
ENDBRANCH  32  49
ENDBRANCH  30  32
ENDBRANCH   1  28
BRANCH   1  55
ATOM     55  CB  TRP A   3      35.484  35.512  29.905  0.00  0.00    +0.057 C 
BRANCH  55  56
ATOM     56  CG  TRP A   3      34.551  34.334  29.996  0.00  0.00    -0.002 A 
ATOM     57  CD1 TRP A   3      33.580  34.124  30.943  0.00  0.00    +0.068 A 
ATOM     58  NE1 TRP A   3      32.951  32.916  30.715  0.00  0.00    -0.352 N 
ATOM     59  HE1 TRP A   3      32.191  32.511  31.298  0.00  0.00    +0.166 HD
ATOM     60  CE2 TRP A   3      33.492  32.337  29.595  0.00  0.00    +0.056 A 
ATOM     61  CZ2 TRP A   3      33.198  31.117  28.983  0.00  0.00    +0.017 A 
ATOM     62  CH2 TRP A   3      33.911  30.774  27.854  0.00  0.00    +0.001 A 
ATOM     63  CZ3 TRP A   3      34.904  31.624  27.333  0.00  0.00    +0.000 A 
ATOM     64  CE3 TRP A   3      35.223  32.835  27.964  0.00  0.00    +0.001 A 
ATOM     65  CD2 TRP A   3      34.506  33.202  29.115  0.00  0.00    +0.013 A 
ENDBRANCH  55  56
ENDBRANCH   1  55
TORSDOF 20
REMARK  Name = ../refined-set-2016/2j62/2j62_pocket.pdb
REMARK  224 active torsions:
REMARK  status: ('A' for Active; 'I' for Inactive)
REMARK    1  A    between atoms: _1  and  _3
REMARK    2  A    between atoms: _3  and  _4
REMARK    3  A    between atoms: _3  and  _6
REMARK    4  A    between atoms: _9  and  _11
REMARK    5  A    between atoms: _11  and  _12
REMARK    6  A    between atoms: _11  and  _14
REMARK    7  A    between atoms: _14  and  _15
REMARK    8  A    between atoms: _15  and  _16
REMARK    9  A    between atoms: _19  and  _21
REMARK   10  A    between atoms: _21  and  _22
REMARK   11  A    between atoms: _24  and  _26
REMARK   12  A    between atoms: _26  and  _27
REMARK   13  A    between atoms: _26  and  _29
REMARK   14  A    between atoms: _29  and  _30
REMARK   15  A    between atoms: _36  and  _38
REMARK   16  A    between atoms: _38  and  _39
REMARK   17  A    between atoms: _38  and  _41
REMARK   18  A    between atoms: _41  and  _42
REMARK   19  A    between atoms: _47  and  _48
REMARK   20  A    between atoms: _50  and  _52
REMARK   21  A    between atoms: _52  and  _53
REMARK   22  A    between atoms: _55  and  _57
REMARK   23  A    between atoms: _57  and  _58
REMARK   24  A    between atoms: _62  and  _63
REMARK   25  A    between atoms: _68  and  _70
REMARK   26  A    between atoms: _70  and  _71
REMARK   27  A    between atoms: _70  and  _73
REMARK   28  A    between atoms: _73  and  _74
REMARK   29  A    between atoms: _74  and  _75
REMARK   30  A    between atoms: _75  and  _76
REMARK   31  A    between atoms: _76  and  _77
REMARK   32  A    between atoms: _81  and  _83
REMARK   33  A    between atoms: _83  and  _84
REMARK   34  A    between atoms: _83  and  _86
REMARK   35  A    between atoms: _86  and  _87
REMARK   36  A    between atoms: _90  and  _92
REMARK   37  A    between atoms: _92  and  _93
REMARK   38  A    between atoms: _92  and  _95
REMARK   39  A    between atoms: _95  and  _96
REMARK   40  A    between atoms: _96  and  _97
REMARK   41  A    between atoms: _97  and  _98
REMARK   42  A    between atoms: _107  and  _109
REMARK   43  A    between atoms: _109  and  _110
REMARK   44  A    between atoms: _109  and  _112
REMARK   45  A    between atoms: _112  and  _113
REMARK   46  A    between atoms: _115  and  _117
REMARK   47  A    between atoms: _117  and  _118
REMARK   48  A    between atoms: _117  and  _120
REMARK   49  A    between atoms: _120  and  _121
REMARK   50  A    between atoms: _126  and  _127
REMARK   51  A    between atoms: _129  and  _131
REMARK   52  A    between atoms: _131  and  _132
REMARK   53  A    between atoms: _131  and  _134
REMARK   54  A    between atoms: _134  and  _135
REMARK   55  A    between atoms: _145  and  _147
REMARK   56  A    between atoms: _147  and  _148
REMARK   57  A    between atoms: _147  and  _150
REMARK   58  A    between atoms: _150  and  _151
REMARK   59  A    between atoms: _154  and  _156
REMARK   60  A    between atoms: _156  and  _157
REMARK   61  A    between atoms: _156  and  _159
REMARK   62  A    between atoms: _159  and  _160
REMARK   63  A    between atoms: _163  and  _165
REMARK   64  A    between atoms: _165  and  _166
REMARK   65  A    between atoms: _165  and  _168
REMARK   66  A    between atoms: _168  and  _169
REMARK   67  A    between atoms: _172  and  _174
REMARK   68  A    between atoms: _174  and  _175
REMARK   69  A    between atoms: _174  and  _177
REMARK   70  A    between atoms: _177  and  _178
REMARK   71  A    between atoms: _181  and  _183
REMARK   72  A    between atoms: _183  and  _184
REMARK   73  A    between atoms: _183  and  _186
REMARK   74  A    between atoms: _190  and  _191
REMARK   75  A    between atoms: _196  and  _198
REMARK   76  A    between atoms: _198  and  _199
REMARK   77  A    between atoms: _198  and  _201
REMARK   78  A    between atoms: _201  and  _202
REMARK   79  A    between atoms: _205  and  _207
REMARK   80  A    between atoms: _207  and  _208
REMARK   81  A    between atoms: _207  and  _210
REMARK   82  A    between atoms: _210  and  _211
REMARK   83  A    between atoms: _211  and  _212
REMARK   84  A    between atoms: _215  and  _217
REMARK   85  A    between atoms: _217  and  _218
REMARK   86  A    between atoms: _217  and  _220
REMARK   87  A    between atoms: _220  and  _221
REMARK   88  A    between atoms: _226  and  _227
REMARK   89  A    between atoms: _229  and  _231
REMARK   90  A    between atoms: _231  and  _232
REMARK   91  A    between atoms: _231  and  _234
REMARK   92  A    between atoms: _234  and  _235
REMARK   93  A    between atoms: _238  and  _240
REMARK   94  A    between atoms: _240  and  _241
REMARK   95  A    between atoms: _240  and  _243
REMARK   96  A    between atoms: _243  and  _244
REMARK   97  A    between atoms: _244  and  _245
REMARK   98  A    between atoms: _247  and  _249
REMARK   99  A    between atoms: _249  and  _250
REMARK  100  A    between atoms: _249  and  _252
REMARK  101  A    between atoms: _252  and  _253
REMARK  102  A    between atoms: _263  and  _265
REMARK  103  A    between atoms: _265  and  _266
REMARK  104  A    between atoms: _265  and  _268
REMARK  105  A    between atoms: _268  and  _269
REMARK  106  A    between atoms: _272  and  _274
REMARK  107  A    between atoms: _274  and  _275
REMARK  108  A    between atoms: _277  and  _279
REMARK  109  A    between atoms: _279  and  _280
REMARK  110  A    between atoms: _282  and  _284
REMARK  111  A    between atoms: _284  and  _285
REMARK  112  A    between atoms: _284  and  _287
REMARK  113  A    between atoms: _290  and  _292
REMARK  114  A    between atoms: _292  and  _293
REMARK  115  A    between atoms: _292  and  _295
REMARK  116  A    between atoms: _298  and  _300
REMARK  117  A    between atoms: _300  and  _301
REMARK  118  A    between atoms: _300  and  _303
REMARK  119  A    between atoms: _306  and  _308
REMARK  120  A    between atoms: _308  and  _309
REMARK  121  A    between atoms: _308  and  _311
REMARK  122  A    between atoms: _311  and  _312
REMARK  123  A    between atoms: _322  and  _324
REMARK  124  A    between atoms: _324  and  _325
REMARK  125  A    between atoms: _324  and  _327
REMARK  126  A    between atoms: _327  and  _328
REMARK  127  A    between atoms: _338  and  _340
REMARK  128  A    between atoms: _340  and  _341
REMARK  129  A    between atoms: _340  and  _343
REMARK  130  A    between atoms: _343  and  _344
REMARK  131  A    between atoms: _349  and  _351
REMARK  132  A    between atoms: _351  and  _352
REMARK  133  A    between atoms: _351  and  _354
REMARK  134  A    between atoms: _354  and  _355
REMARK  135  A    between atoms: _360  and  _361
REMARK  136  A    between atoms: _363  and  _365
REMARK  137  A    between atoms: _365  and  _366
REMARK  138  A    between atoms: _365  and  _368
REMARK  139  A    between atoms: _371  and  _373
REMARK  140  A    between atoms: _373  and  _374
REMARK  141  A    between atoms: _373  and  _376
REMARK  142  A    between atoms: _376  and  _377
REMARK  143  A    between atoms: _380  and  _382
REMARK  144  A    between atoms: _382  and  _383
REMARK  145  A    between atoms: _382  and  _385
REMARK  146  A    between atoms: _385  and  _386
REMARK  147  A    between atoms: _389  and  _391
REMARK  148  A    between atoms: _391  and  _392
REMARK  149  A    between atoms: _391  and  _394
REMARK  150  A    between atoms: _394  and  _395
REMARK  151  A    between atoms: _400  and  _401
REMARK  152  A    between atoms: _403  and  _405
REMARK  153  A    between atoms: _405  and  _406
REMARK  154  A    between atoms: _405  and  _408
REMARK  155  A    between atoms: _408  and  _409
REMARK  156  A    between atoms: _415  and  _417
REMARK  157  A    between atoms: _417  and  _418
REMARK  158  A    between atoms: _417  and  _420
REMARK  159  A    between atoms: _420  and  _421
REMARK  160  A    between atoms: _427  and  _428
REMARK  161  A    between atoms: _433  and  _435
REMARK  162  A    between atoms: _435  and  _436
REMARK  163  A    between atoms: _435  and  _438
REMARK  164  A    between atoms: _438  and  _439
REMARK  165  A    between atoms: _444  and  _446
REMARK  166  A    between atoms: _446  and  _447
REMARK  167  A    between atoms: _446  and  _449
REMARK  168  A    between atoms: _449  and  _450
REMARK  169  A    between atoms: _460  and  _462
REMARK  170  A    between atoms: _462  and  _463
REMARK  171  A    between atoms: _466  and  _468
REMARK  172  A    between atoms: _468  and  _469
REMARK  173  A    between atoms: _468  and  _471
REMARK  174  A    between atoms: _471  and  _472
REMARK  175  A    between atoms: _482  and  _484
REMARK  176  A    between atoms: _484  and  _485
REMARK  177  A    between atoms: _484  and  _487
REMARK  178  A    between atoms: _487  and  _488
REMARK  179  A    between atoms: _488  and  _489
REMARK  180  A    between atoms: _489  and  _490
REMARK  181  A    between atoms: _490  and  _491
REMARK  182  A    between atoms: _495  and  _497
REMARK  183  A    between atoms: _497  and  _498
REMARK  184  A    between atoms: _497  and  _500
REMARK  185  A    between atoms: _500  and  _501
REMARK  186  A    between atoms: _504  and  _506
REMARK  187  A    between atoms: _506  and  _507
REMARK  188  A    between atoms: _506  and  _509
REMARK  189  A    between atoms: _509  and  _510
REMARK  190  A    between atoms: _512  and  _514
REMARK  191  A    between atoms: _514  and  _515
REMARK  192  A    between atoms: _514  and  _517
REMARK  193  A    between atoms: _517  and  _518
REMARK  194  A    between atoms: _520  and  _522
REMARK  195  A    between atoms: _522  and  _523
REMARK  196  A    between atoms: _522  and  _525
REMARK  197  A    between atoms: _525  and  _526
REMARK  198  A    between atoms: _526  and  _527
REMARK  199  A    between atoms: _527  and  _528
REMARK  200  A    between atoms: _528  and  _529
REMARK  201  A    between atoms: _533  and  _535
REMARK  202  A    between atoms: _535  and  _536
REMARK  203  A    between atoms: _535  and  _538
REMARK  204  A    between atoms: _538  and  _539
REMARK  205  A    between atoms: _545  and  _547
REMARK  206  A    between atoms: _547  and  _548
REMARK  207  A    between atoms: _547  and  _550
REMARK  208  A    between atoms: _550  and  _551
REMARK  209  A    between atoms: _554  and  _556
REMARK  210  A    between atoms: _556  and  _557
REMARK  211  A    between atoms: _556  and  _559
REMARK  212  A    between atoms: _559  and  _560
REMARK  213  A    between atoms: _563  and  _565
REMARK  214  A    between atoms: _565  and  _566
REMARK  215  A    between atoms: _565  and  _568
REMARK  216  A    between atoms: _568  and  _569
REMARK  217  A    between atoms: _572  and  _574
REMARK  218  A    between atoms: _574  and  _575
REMARK  219  A    between atoms: _574  and  _577
REMARK  220  A    between atoms: _577  and  _578
REMARK  221  A    between atoms: _581  and  _583
REMARK  222  A    between atoms: _583  and  _584
REMARK  223  A    between atoms: _583  and  _586
REMARK  224  A    between atoms: _586  and  _587
REMARK                            x       y       z     vdW  Elec       q    Type
REMARK                         _______ _______ _______ _____ _____    ______ ____
ROOT
ATOM      1  C   ASP A   3      23.811  42.243  22.991  0.00  0.00    +0.241 C 
ATOM      2  N   TYR A   4      24.162  40.992  22.686  0.00  0.00    -0.297 N 
ATOM      3  H   TYR A   4      24.700  40.444  23.387  0.00  0.00    +0.150 HD
ATOM      4  O   ASP A   3      23.147  42.937  22.240  0.00  0.00    -0.273 OA
ENDROOT
BRANCH   1   5
ATOM      5  CA  ASP A   3      24.296  42.784  24.354  0.00  0.00    +0.160 C 
BRANCH   5   7
ATOM      6  C   THR A   2      23.629  40.864  25.752  0.00  0.00    +0.243 C 
ATOM      7  N   ASP A   3      24.570  41.746  25.391  0.00  0.00    -0.296 N 
ATOM      8  H   ASP A   3      25.507  41.707  25.841  0.00  0.00    +0.150 HD
ATOM      9  O   THR A   2      22.521  40.833  25.230  0.00  0.00    -0.273 OA
BRANCH   6  10
ATOM     10  CA  THR A   2      23.959  39.850  26.860  0.00  0.00    +0.176 C 
BRANCH  10  12
ATOM     11  C   VAL A   1      26.152  39.429  27.842  0.00  0.00    +0.238 C 
ATOM     12  N   THR A   2      25.147  40.266  27.575  0.00  0.00    -0.295 N 
ATOM     13  H   THR A   2      25.220  41.254  27.892  0.00  0.00    +0.150 HD
ATOM     14  O   VAL A   1      26.187  38.256  27.442  0.00  0.00    -0.274 OA
BRANCH  11  15
ATOM     15  CA  VAL A   1      27.298  40.017  28.699  0.00  0.00    +0.145 C 
BRANCH  15  16
ATOM     16  CB  VAL A   1      28.395  40.618  27.787  0.00  0.00    +0.025 C 
ATOM     17  CG2 VAL A   1      29.162  39.518  27.021  0.00  0.00    +0.002 C 
ATOM     18  CG1 VAL A   1      27.799  41.652  26.842  0.00  0.00    +0.002 C 
ENDBRANCH  15  16
BRANCH  15  19
ATOM     19  N   VAL A   1      27.837  39.047  29.664  0.00  0.00    -0.238 NA
ATOM     20  H   VAL A   1      28.863  38.891  29.731  0.00  0.00    +0.142 HD
ENDBRANCH  15  19
ENDBRANCH  11  15
ENDBRANCH  10  12
BRANCH  10  21
ATOM     21  CB  THR A   2      22.729  39.814  27.811  0.00  0.00    +0.137 C 
ATOM     22  CG2 THR A   2      22.885  38.754  28.919  0.00  0.00    +0.034 C 
BRANCH  21  23
ATOM     23  OG1 THR A   2      22.562  41.113  28.413  0.00  0.00    -0.382 OA
ATOM     24  HG1 THR A   2      21.780  41.096  29.020  0.00  0.00    +0.210 HD
ENDBRANCH  21  23
ENDBRANCH  10  21
ENDBRANCH   6  10
ENDBRANCH   5   7
BRANCH   5  25
ATOM     25  CB  ASP A   3      25.472  43.781  24.191  0.00  0.00    +0.143 C 
BRANCH  25  26
ATOM     26  CG  ASP A   3      26.799  43.131  23.732  0.00  0.00    +0.367 C 
ATOM     27  OD2 ASP A   3      27.834  43.855  23.760  0.00  0.00    -0.246 OA
ATOM     28  OD1 ASP A   3      26.844  41.945  23.340  0.00  0.00    -0.246 OA
ENDBRANCH  25  26
ENDBRANCH   5  25
ENDBRANCH   1   5
BRANCH   2  29
ATOM     29  CA  TYR A   4      23.826  40.354  21.412  0.00  0.00    +0.153 C 
BRANCH  29  30
ATOM     30  C   TYR A   4      22.505  39.569  21.537  0.00  0.00    +0.241 C 
ATOM     31  N   PHE A   5      21.949  39.504  22.750  0.00  0.00    -0.298 N 
ATOM     32  H   PHE A   5      22.425  39.958  23.556  0.00  0.00    +0.150 HD
ATOM     33  O   TYR A   4      22.016  38.998  20.558  0.00  0.00    -0.273 OA
BRANCH  31  34
ATOM     34  CA  PHE A   5      20.684  38.806  22.964  0.00  0.00    +0.141 C 
BRANCH  34  35
ATOM     35  C   PHE A   5      20.014  39.340  24.227  0.00  0.00    +0.227 C 
ATOM     36  O   PHE A   5      19.965  38.651  25.247  0.00  0.00    -0.286 OA
ENDBRANCH  34  35
BRANCH  34  37
ATOM     37  CB  PHE A   5      20.900  37.280  23.047  0.00  0.00    +0.054 C 
BRANCH  37  38
ATOM     38  CG  PHE A   5      19.622  36.468  22.862  0.00  0.00    -0.020 A 
ATOM     39  CD2 PHE A   5      19.112  35.704  23.911  0.00  0.00    -0.004 A 
ATOM     40  CE2 PHE A   5      17.947  34.949  23.754  0.00  0.00    -0.000 A 
ATOM     41  CZ  PHE A   5      17.261  34.961  22.524  0.00  0.00    -0.000 A 
ATOM     42  CE1 PHE A   5      17.765  35.711  21.462  0.00  0.00    -0.000 A 
ATOM     43  CD1 PHE A   5      18.939  36.467  21.631  0.00  0.00    -0.004 A 
ENDBRANCH  37  38
ENDBRANCH  34  37
ENDBRANCH  31  34
ENDBRANCH  29  30
BRANCH  29  44
ATOM     44  CB  TYR A   4      24.972  39.399  21.016  0.00  0.00    +0.055 C 
BRANCH  44  45
ATOM     45  CG  TYR A   4      25.193  38.310  22.054  0.00  0.00    -0.020 A 
ATOM     46  CD2 TYR A   4      26.115  38.475  23.082  0.00  0.00    -0.001 A 
ATOM     47  CE2 TYR A   4      26.294  37.501  24.055  0.00  0.00    +0.036 A 
ATOM     48  CZ  TYR A   4      25.542  36.335  23.995  0.00  0.00    +0.134 A 
ATOM     49  CE1 TYR A   4      24.615  36.147  22.983  0.00  0.00    +0.036 A 
ATOM     50  CD1 TYR A   4      24.443  37.141  22.029  0.00  0.00    -0.001 A 
BRANCH  48  51
ATOM     51  OH  TYR A   4      25.711  35.354  24.939  0.00  0.00    -0.506 OA
ATOM     52  HH  TYR A   4      25.508  35.722  25.835  0.00  0.00    +0.292 HD
ENDBRANCH  48  51
ENDBRANCH  44  45
ENDBRANCH  29  44
ENDBRANCH   2  29
TORSDOF 20
REMARK  Name = ../refined-set-2016/2j62/2j62_pocket.pdb
REMARK  224 active torsions:
REMARK  status: ('A' for Active; 'I' for Inactive)
REMARK    1  A    between atoms: _1  and  _3
REMARK    2  A    between atoms: _3  and  _4
REMARK    3  A    between atoms: _3  and  _6
REMARK    4  A    between atoms: _9  and  _11
REMARK    5  A    between atoms: _11  and  _12
REMARK    6  A    between atoms: _11  and  _14
REMARK    7  A    between atoms: _14  and  _15
REMARK    8  A    between atoms: _15  and  _16
REMARK    9  A    between atoms: _19  and  _21
REMARK   10  A    between atoms: _21  and  _22
REMARK   11  A    between atoms: _24  and  _26
REMARK   12  A    between atoms: _26  and  _27
REMARK   13  A    between atoms: _26  and  _29
REMARK   14  A    between atoms: _29  and  _30
REMARK   15  A    between atoms: _36  and  _38
REMARK   16  A    between atoms: _38  and  _39
REMARK   17  A    between atoms: _38  and  _41
REMARK   18  A    between atoms: _41  and  _42
REMARK   19  A    between atoms: _47  and  _48
REMARK   20  A    between atoms: _50  and  _52
REMARK   21  A    between atoms: _52  and  _53
REMARK   22  A    between atoms: _55  and  _57
REMARK   23  A    between atoms: _57  and  _58
REMARK   24  A    between atoms: _62  and  _63
REMARK   25  A    between atoms: _68  and  _70
REMARK   26  A    between atoms: _70  and  _71
REMARK   27  A    between atoms: _70  and  _73
REMARK   28  A    between atoms: _73  and  _74
REMARK   29  A    between atoms: _74  and  _75
REMARK   30  A    between atoms: _75  and  _76
REMARK   31  A    between atoms: _76  and  _77
REMARK   32  A    between atoms: _81  and  _83
REMARK   33  A    between atoms: _83  and  _84
REMARK   34  A    between atoms: _83  and  _86
REMARK   35  A    between atoms: _86  and  _87
REMARK   36  A    between atoms: _90  and  _92
REMARK   37  A    between atoms: _92  and  _93
REMARK   38  A    between atoms: _92  and  _95
REMARK   39  A    between atoms: _95  and  _96
REMARK   40  A    between atoms: _96  and  _97
REMARK   41  A    between atoms: _97  and  _98
REMARK   42  A    between atoms: _107  and  _109
REMARK   43  A    between atoms: _109  and  _110
REMARK   44  A    between atoms: _109  and  _112
REMARK   45  A    between atoms: _112  and  _113
REMARK   46  A    between atoms: _115  and  _117
REMARK   47  A    between atoms: _117  and  _118
REMARK   48  A    between atoms: _117  and  _120
REMARK   49  A    between atoms: _120  and  _121
REMARK   50  A    between atoms: _126  and  _127
REMARK   51  A    between atoms: _129  and  _131
REMARK   52  A    between atoms: _131  and  _132
REMARK   53  A    between atoms: _131  and  _134
REMARK   54  A    between atoms: _134  and  _135
REMARK   55  A    between atoms: _145  and  _147
REMARK   56  A    between atoms: _147  and  _148
REMARK   57  A    between atoms: _147  and  _150
REMARK   58  A    between atoms: _150  and  _151
REMARK   59  A    between atoms: _154  and  _156
REMARK   60  A    between atoms: _156  and  _157
REMARK   61  A    between atoms: _156  and  _159
REMARK   62  A    between atoms: _159  and  _160
REMARK   63  A    between atoms: _163  and  _165
REMARK   64  A    between atoms: _165  and  _166
REMARK   65  A    between atoms: _165  and  _168
REMARK   66  A    between atoms: _168  and  _169
REMARK   67  A    between atoms: _172  and  _174
REMARK   68  A    between atoms: _174  and  _175
REMARK   69  A    between atoms: _174  and  _177
REMARK   70  A    between atoms: _177  and  _178
REMARK   71  A    between atoms: _181  and  _183
REMARK   72  A    between atoms: _183  and  _184
REMARK   73  A    between atoms: _183  and  _186
REMARK   74  A    between atoms: _190  and  _191
REMARK   75  A    between atoms: _196  and  _198
REMARK   76  A    between atoms: _198  and  _199
REMARK   77  A    between atoms: _198  and  _201
REMARK   78  A    between atoms: _201  and  _202
REMARK   79  A    between atoms: _205  and  _207
REMARK   80  A    between atoms: _207  and  _208
REMARK   81  A    between atoms: _207  and  _210
REMARK   82  A    between atoms: _210  and  _211
REMARK   83  A    between atoms: _211  and  _212
REMARK   84  A    between atoms: _215  and  _217
REMARK   85  A    between atoms: _217  and  _218
REMARK   86  A    between atoms: _217  and  _220
REMARK   87  A    between atoms: _220  and  _221
REMARK   88  A    between atoms: _226  and  _227
REMARK   89  A    between atoms: _229  and  _231
REMARK   90  A    between atoms: _231  and  _232
REMARK   91  A    between atoms: _231  and  _234
REMARK   92  A    between atoms: _234  and  _235
REMARK   93  A    between atoms: _238  and  _240
REMARK   94  A    between atoms: _240  and  _241
REMARK   95  A    between atoms: _240  and  _243
REMARK   96  A    between atoms: _243  and  _244
REMARK   97  A    between atoms: _244  and  _245
REMARK   98  A    between atoms: _247  and  _249
REMARK   99  A    between atoms: _249  and  _250
REMARK  100  A    between atoms: _249  and  _252
REMARK  101  A    between atoms: _252  and  _253
REMARK  102  A    between atoms: _263  and  _265
REMARK  103  A    between atoms: _265  and  _266
REMARK  104  A    between atoms: _265  and  _268
REMARK  105  A    between atoms: _268  and  _269
REMARK  106  A    between atoms: _272  and  _274
REMARK  107  A    between atoms: _274  and  _275
REMARK  108  A    between atoms: _277  and  _279
REMARK  109  A    between atoms: _279  and  _280
REMARK  110  A    between atoms: _282  and  _284
REMARK  111  A    between atoms: _284  and  _285
REMARK  112  A    between atoms: _284  and  _287
REMARK  113  A    between atoms: _290  and  _292
REMARK  114  A    between atoms: _292  and  _293
REMARK  115  A    between atoms: _292  and  _295
REMARK  116  A    between atoms: _298  and  _300
REMARK  117  A    between atoms: _300  and  _301
REMARK  118  A    between atoms: _300  and  _303
REMARK  119  A    between atoms: _306  and  _308
REMARK  120  A    between atoms: _308  and  _309
REMARK  121  A    between atoms: _308  and  _311
REMARK  122  A    between atoms: _311  and  _312
REMARK  123  A    between atoms: _322  and  _324
REMARK  124  A    between atoms: _324  and  _325
REMARK  125  A    between atoms: _324  and  _327
REMARK  126  A    between atoms: _327  and  _328
REMARK  127  A    between atoms: _338  and  _340
REMARK  128  A    between atoms: _340  and  _341
REMARK  129  A    between atoms: _340  and  _343
REMARK  130  A    between atoms: _343  and  _344
REMARK  131  A    between atoms: _349  and  _351
REMARK  132  A    between atoms: _351  and  _352
REMARK  133  A    between atoms: _351  and  _354
REMARK  134  A    between atoms: _354  and  _355
REMARK  135  A    between atoms: _360  and  _361
REMARK  136  A    between atoms: _363  and  _365
REMARK  137  A    between atoms: _365  and  _366
REMARK  138  A    between atoms: _365  and  _368
REMARK  139  A    between atoms: _371  and  _373
REMARK  140  A    between atoms: _373  and  _374
REMARK  141  A    between atoms: _373  and  _376
REMARK  142  A    between atoms: _376  and  _377
REMARK  143  A    between atoms: _380  and  _382
REMARK  144  A    between atoms: _382  and  _383
REMARK  145  A    between atoms: _382  and  _385
REMARK  146  A    between atoms: _385  and  _386
REMARK  147  A    between atoms: _389  and  _391
REMARK  148  A    between atoms: _391  and  _392
REMARK  149  A    between atoms: _391  and  _394
REMARK  150  A    between atoms: _394  and  _395
REMARK  151  A    between atoms: _400  and  _401
REMARK  152  A    between atoms: _403  and  _405
REMARK  153  A    between atoms: _405  and  _406
REMARK  154  A    between atoms: _405  and  _408
REMARK  155  A    between atoms: _408  and  _409
REMARK  156  A    between atoms: _415  and  _417
REMARK  157  A    between atoms: _417  and  _418
REMARK  158  A    between atoms: _417  and  _420
REMARK  159  A    between atoms: _420  and  _421
REMARK  160  A    between atoms: _427  and  _428
REMARK  161  A    between atoms: _433  and  _435
REMARK  162  A    between atoms: _435  and  _436
REMARK  163  A    between atoms: _435  and  _438
REMARK  164  A    between atoms: _438  and  _439
REMARK  165  A    between atoms: _444  and  _446
REMARK  166  A    between atoms: _446  and  _447
REMARK  167  A    between atoms: _446  and  _449
REMARK  168  A    between atoms: _449  and  _450
REMARK  169  A    between atoms: _460  and  _462
REMARK  170  A    between atoms: _462  and  _463
REMARK  171  A    between atoms: _466  and  _468
REMARK  172  A    between atoms: _468  and  _469
REMARK  173  A    between atoms: _468  and  _471
REMARK  174  A    between atoms: _471  and  _472
REMARK  175  A    between atoms: _482  and  _484
REMARK  176  A    between atoms: _484  and  _485
REMARK  177  A    between atoms: _484  and  _487
REMARK  178  A    between atoms: _487  and  _488
REMARK  179  A    between atoms: _488  and  _489
REMARK  180  A    between atoms: _489  and  _490
REMARK  181  A    between atoms: _490  and  _491
REMARK  182  A    between atoms: _495  and  _497
REMARK  183  A    between atoms: _497  and  _498
REMARK  184  A    between atoms: _497  and  _500
REMARK  185  A    between atoms: _500  and  _501
REMARK  186  A    between atoms: _504  and  _506
REMARK  187  A    between atoms: _506  and  _507
REMARK  188  A    between atoms: _506  and  _509
REMARK  189  A    between atoms: _509  and  _510
REMARK  190  A    between atoms: _512  and  _514
REMARK  191  A    between atoms: _514  and  _515
REMARK  192  A    between atoms: _514  and  _517
REMARK  193  A    between atoms: _517  and  _518
REMARK  194  A    between atoms: _520  and  _522
REMARK  195  A    between atoms: _522  and  _523
REMARK  196  A    between atoms: _522  and  _525
REMARK  197  A    between atoms: _525  and  _526
REMARK  198  A    between atoms: _526  and  _527
REMARK  199  A    between atoms: _527  and  _528
REMARK  200  A    between atoms: _528  and  _529
REMARK  201  A    between atoms: _533  and  _535
REMARK  202  A    between atoms: _535  and  _536
REMARK  203  A    between atoms: _535  and  _538
REMARK  204  A    between atoms: _538  and  _539
REMARK  205  A    between atoms: _545  and  _547
REMARK  206  A    between atoms: _547  and  _548
REMARK  207  A    between atoms: _547  and  _550
REMARK  208  A    between atoms: _550  and  _551
REMARK  209  A    between atoms: _554  and  _556
REMARK  210  A    between atoms: _556  and  _557
REMARK  211  A    between atoms: _556  and  _559
REMARK  212  A    between atoms: _559  and  _560
REMARK  213  A    between atoms: _563  and  _565
REMARK  214  A    between atoms: _565  and  _566
REMARK  215  A    between atoms: _565  and  _568
REMARK  216  A    between atoms: _568  and  _569
REMARK  217  A    between atoms: _572  and  _574
REMARK  218  A    between atoms: _574  and  _575
REMARK  219  A    between atoms: _574  and  _577
REMARK  220  A    between atoms: _577  and  _578
REMARK  221  A    between atoms: _581  and  _583
REMARK  222  A    between atoms: _583  and  _584
REMARK  223  A    between atoms: _583  and  _586
REMARK  224  A    between atoms: _586  and  _587
REMARK                            x       y       z     vdW  Elec       q    Type
REMARK                         _______ _______ _______ _____ _____    ______ ____
ROOT
ATOM      1  CA  ASN A   1      32.506  41.302  30.040  0.00  0.00    +0.154 C 
ENDROOT
BRANCH   1   2
ATOM      2  C   ASN A   1      31.081  41.069  30.575  0.00  0.00    +0.242 C 
ATOM      3  N   PRO A   2      30.565  42.016  31.378  0.00  0.00    -0.273 N 
ATOM      4  CA  PRO A   2      29.291  41.775  32.069  0.00  0.00    +0.140 C 
ATOM      5  CB  PRO A   2      29.478  42.558  33.377  0.00  0.00    +0.030 C 
ATOM      6  CG  PRO A   2      30.365  43.728  32.966  0.00  0.00    +0.024 C 
ATOM      7  CD  PRO A   2      31.088  43.360  31.681  0.00  0.00    +0.094 C 
ATOM      8  O   ASN A   1      30.453  40.024  30.288  0.00  0.00    -0.273 OA
BRANCH   4   9
ATOM      9  C   PRO A   2      28.077  42.318  31.267  0.00  0.00    +0.227 C 
ATOM     10  O   PRO A   2      28.248  42.774  30.124  0.00  0.00    -0.286 OA
ENDBRANCH   4   9
ENDBRANCH   1   2
BRANCH   1  11
ATOM     11  N   ASN A   1      33.325  40.256  30.608  0.00  0.00    -0.238 NA
ATOM     12  H   ASN A   1      33.407  39.358  30.090  0.00  0.00    +0.142 HD
ENDBRANCH   1  11
BRANCH   1  13
ATOM     13  CB  ASN A   1      32.604  41.190  28.515  0.00  0.00    +0.111 C 
BRANCH  13  14
ATOM     14  CG  ASN A   1      31.935  42.350  27.756  0.00  0.00    +0.221 C 
ATOM     15  OD1 ASN A   1      31.752  43.447  28.279  0.00  0.00    -0.275 OA
ATOM     16  ND2 ASN A   1      31.584  42.093  26.491  0.00  0.00    -0.329 N 
ATOM     17 HD21 ASN A   1      31.756  41.151  26.085  0.00  0.00    +0.145 HD
ATOM     18 HD22 ASN A   1      31.139  42.835  25.914  0.00  0.00    +0.145 HD
ENDBRANCH  13  14
ENDBRANCH   1  13
TORSDOF 5
REMARK  Name = ../refined-set-2016/2j62/2j62_pocket.pdb
REMARK  224 active torsions:
REMARK  status: ('A' for Active; 'I' for Inactive)
REMARK    1  A    between atoms: _1  and  _3
REMARK    2  A    between atoms: _3  and  _4
REMARK    3  A    between atoms: _3  and  _6
REMARK    4  A    between atoms: _9  and  _11
REMARK    5  A    between atoms: _11  and  _12
REMARK    6  A    between atoms: _11  and  _14
REMARK    7  A    between atoms: _14  and  _15
REMARK    8  A    between atoms: _15  and  _16
REMARK    9  A    between atoms: _19  and  _21
REMARK   10  A    between atoms: _21  and  _22
REMARK   11  A    between atoms: _24  and  _26
REMARK   12  A    between atoms: _26  and  _27
REMARK   13  A    between atoms: _26  and  _29
REMARK   14  A    between atoms: _29  and  _30
REMARK   15  A    between atoms: _36  and  _38
REMARK   16  A    between atoms: _38  and  _39
REMARK   17  A    between atoms: _38  and  _41
REMARK   18  A    between atoms: _41  and  _42
REMARK   19  A    between atoms: _47  and  _48
REMARK   20  A    between atoms: _50  and  _52
REMARK   21  A    between atoms: _52  and  _53
REMARK   22  A    between atoms: _55  and  _57
REMARK   23  A    between atoms: _57  and  _58
REMARK   24  A    between atoms: _62  and  _63
REMARK   25  A    between atoms: _68  and  _70
REMARK   26  A    between atoms: _70  and  _71
REMARK   27  A    between atoms: _70  and  _73
REMARK   28  A    between atoms: _73  and  _74
REMARK   29  A    between atoms: _74  and  _75
REMARK   30  A    between atoms: _75  and  _76
REMARK   31  A    between atoms: _76  and  _77
REMARK   32  A    between atoms: _81  and  _83
REMARK   33  A    between atoms: _83  and  _84
REMARK   34  A    between atoms: _83  and  _86
REMARK   35  A    between atoms: _86  and  _87
REMARK   36  A    between atoms: _90  and  _92
REMARK   37  A    between atoms: _92  and  _93
REMARK   38  A    between atoms: _92  and  _95
REMARK   39  A    between atoms: _95  and  _96
REMARK   40  A    between atoms: _96  and  _97
REMARK   41  A    between atoms: _97  and  _98
REMARK   42  A    between atoms: _107  and  _109
REMARK   43  A    between atoms: _109  and  _110
REMARK   44  A    between atoms: _109  and  _112
REMARK   45  A    between atoms: _112  and  _113
REMARK   46  A    between atoms: _115  and  _117
REMARK   47  A    between atoms: _117  and  _118
REMARK   48  A    between atoms: _117  and  _120
REMARK   49  A    between atoms: _120  and  _121
REMARK   50  A    between atoms: _126  and  _127
REMARK   51  A    between atoms: _129  and  _131
REMARK   52  A    between atoms: _131  and  _132
REMARK   53  A    between atoms: _131  and  _134
REMARK   54  A    between atoms: _134  and  _135
REMARK   55  A    between atoms: _145  and  _147
REMARK   56  A    between atoms: _147  and  _148
REMARK   57  A    between atoms: _147  and  _150
REMARK   58  A    between atoms: _150  and  _151
REMARK   59  A    between atoms: _154  and  _156
REMARK   60  A    between atoms: _156  and  _157
REMARK   61  A    between atoms: _156  and  _159
REMARK   62  A    between atoms: _159  and  _160
REMARK   63  A    between atoms: _163  and  _165
REMARK   64  A    between atoms: _165  and  _166
REMARK   65  A    between atoms: _165  and  _168
REMARK   66  A    between atoms: _168  and  _169
REMARK   67  A    between atoms: _172  and  _174
REMARK   68  A    between atoms: _174  and  _175
REMARK   69  A    between atoms: _174  and  _177
REMARK   70  A    between atoms: _177  and  _178
REMARK   71  A    between atoms: _181  and  _183
REMARK   72  A    between atoms: _183  and  _184
REMARK   73  A    between atoms: _183  and  _186
REMARK   74  A    between atoms: _190  and  _191
REMARK   75  A    between atoms: _196  and  _198
REMARK   76  A    between atoms: _198  and  _199
REMARK   77  A    between atoms: _198  and  _201
REMARK   78  A    between atoms: _201  and  _202
REMARK   79  A    between atoms: _205  and  _207
REMARK   80  A    between atoms: _207  and  _208
REMARK   81  A    between atoms: _207  and  _210
REMARK   82  A    between atoms: _210  and  _211
REMARK   83  A    between atoms: _211  and  _212
REMARK   84  A    between atoms: _215  and  _217
REMARK   85  A    between atoms: _217  and  _218
REMARK   86  A    between atoms: _217  and  _220
REMARK   87  A    between atoms: _220  and  _221
REMARK   88  A    between atoms: _226  and  _227
REMARK   89  A    between atoms: _229  and  _231
REMARK   90  A    between atoms: _231  and  _232
REMARK   91  A    between atoms: _231  and  _234
REMARK   92  A    between atoms: _234  and  _235
REMARK   93  A    between atoms: _238  and  _240
REMARK   94  A    between atoms: _240  and  _241
REMARK   95  A    between atoms: _240  and  _243
REMARK   96  A    between atoms: _243  and  _244
REMARK   97  A    between atoms: _244  and  _245
REMARK   98  A    between atoms: _247  and  _249
REMARK   99  A    between atoms: _249  and  _250
REMARK  100  A    between atoms: _249  and  _252
REMARK  101  A    between atoms: _252  and  _253
REMARK  102  A    between atoms: _263  and  _265
REMARK  103  A    between atoms: _265  and  _266
REMARK  104  A    between atoms: _265  and  _268
REMARK  105  A    between atoms: _268  and  _269
REMARK  106  A    between atoms: _272  and  _274
REMARK  107  A    between atoms: _274  and  _275
REMARK  108  A    between atoms: _277  and  _279
REMARK  109  A    between atoms: _279  and  _280
REMARK  110  A    between atoms: _282  and  _284
REMARK  111  A    between atoms: _284  and  _285
REMARK  112  A    between atoms: _284  and  _287
REMARK  113  A    between atoms: _290  and  _292
REMARK  114  A    between atoms: _292  and  _293
REMARK  115  A    between atoms: _292  and  _295
REMARK  116  A    between atoms: _298  and  _300
REMARK  117  A    between atoms: _300  and  _301
REMARK  118  A    between atoms: _300  and  _303
REMARK  119  A    between atoms: _306  and  _308
REMARK  120  A    between atoms: _308  and  _309
REMARK  121  A    between atoms: _308  and  _311
REMARK  122  A    between atoms: _311  and  _312
REMARK  123  A    between atoms: _322  and  _324
REMARK  124  A    between atoms: _324  and  _325
REMARK  125  A    between atoms: _324  and  _327
REMARK  126  A    between atoms: _327  and  _328
REMARK  127  A    between atoms: _338  and  _340
REMARK  128  A    between atoms: _340  and  _341
REMARK  129  A    between atoms: _340  and  _343
REMARK  130  A    between atoms: _343  and  _344
REMARK  131  A    between atoms: _349  and  _351
REMARK  132  A    between atoms: _351  and  _352
REMARK  133  A    between atoms: _351  and  _354
REMARK  134  A    between atoms: _354  and  _355
REMARK  135  A    between atoms: _360  and  _361
REMARK  136  A    between atoms: _363  and  _365
REMARK  137  A    between atoms: _365  and  _366
REMARK  138  A    between atoms: _365  and  _368
REMARK  139  A    between atoms: _371  and  _373
REMARK  140  A    between atoms: _373  and  _374
REMARK  141  A    between atoms: _373  and  _376
REMARK  142  A    between atoms: _376  and  _377
REMARK  143  A    between atoms: _380  and  _382
REMARK  144  A    between atoms: _382  and  _383
REMARK  145  A    between atoms: _382  and  _385
REMARK  146  A    between atoms: _385  and  _386
REMARK  147  A    between atoms: _389  and  _391
REMARK  148  A    between atoms: _391  and  _392
REMARK  149  A    between atoms: _391  and  _394
REMARK  150  A    between atoms: _394  and  _395
REMARK  151  A    between atoms: _400  and  _401
REMARK  152  A    between atoms: _403  and  _405
REMARK  153  A    between atoms: _405  and  _406
REMARK  154  A    between atoms: _405  and  _408
REMARK  155  A    between atoms: _408  and  _409
REMARK  156  A    between atoms: _415  and  _417
REMARK  157  A    between atoms: _417  and  _418
REMARK  158  A    between atoms: _417  and  _420
REMARK  159  A    between atoms: _420  and  _421
REMARK  160  A    between atoms: _427  and  _428
REMARK  161  A    between atoms: _433  and  _435
REMARK  162  A    between atoms: _435  and  _436
REMARK  163  A    between atoms: _435  and  _438
REMARK  164  A    between atoms: _438  and  _439
REMARK  165  A    between atoms: _444  and  _446
REMARK  166  A    between atoms: _446  and  _447
REMARK  167  A    between atoms: _446  and  _449
REMARK  168  A    between atoms: _449  and  _450
REMARK  169  A    between atoms: _460  and  _462
REMARK  170  A    between atoms: _462  and  _463
REMARK  171  A    between atoms: _466  and  _468
REMARK  172  A    between atoms: _468  and  _469
REMARK  173  A    between atoms: _468  and  _471
REMARK  174  A    between atoms: _471  and  _472
REMARK  175  A    between atoms: _482  and  _484
REMARK  176  A    between atoms: _484  and  _485
REMARK  177  A    between atoms: _484  and  _487
REMARK  178  A    between atoms: _487  and  _488
REMARK  179  A    between atoms: _488  and  _489
REMARK  180  A    between atoms: _489  and  _490
REMARK  181  A    between atoms: _490  and  _491
REMARK  182  A    between atoms: _495  and  _497
REMARK  183  A    between atoms: _497  and  _498
REMARK  184  A    between atoms: _497  and  _500
REMARK  185  A    between atoms: _500  and  _501
REMARK  186  A    between atoms: _504  and  _506
REMARK  187  A    between atoms: _506  and  _507
REMARK  188  A    between atoms: _506  and  _509
REMARK  189  A    between atoms: _509  and  _510
REMARK  190  A    between atoms: _512  and  _514
REMARK  191  A    between atoms: _514  and  _515
REMARK  192  A    between atoms: _514  and  _517
REMARK  193  A    between atoms: _517  and  _518
REMARK  194  A    between atoms: _520  and  _522
REMARK  195  A    between atoms: _522  and  _523
REMARK  196  A    between atoms: _522  and  _525
REMARK  197  A    between atoms: _525  and  _526
REMARK  198  A    between atoms: _526  and  _527
REMARK  199  A    between atoms: _527  and  _528
REMARK  200  A    between atoms: _528  and  _529
REMARK  201  A    between atoms: _533  and  _535
REMARK  202  A    between atoms: _535  and  _536
REMARK  203  A    between atoms: _535  and  _538
REMARK  204  A    between atoms: _538  and  _539
REMARK  205  A    between atoms: _545  and  _547
REMARK  206  A    between atoms: _547  and  _548
REMARK  207  A    between atoms: _547  and  _550
REMARK  208  A    between atoms: _550  and  _551
REMARK  209  A    between atoms: _554  and  _556
REMARK  210  A    between atoms: _556  and  _557
REMARK  211  A    between atoms: _556  and  _559
REMARK  212  A    between atoms: _559  and  _560
REMARK  213  A    between atoms: _563  and  _565
REMARK  214  A    between atoms: _565  and  _566
REMARK  215  A    between atoms: _565  and  _568
REMARK  216  A    between atoms: _568  and  _569
REMARK  217  A    between atoms: _572  and  _574
REMARK  218  A    between atoms: _574  and  _575
REMARK  219  A    between atoms: _574  and  _577
REMARK  220  A    between atoms: _577  and  _578
REMARK  221  A    between atoms: _581  and  _583
REMARK  222  A    between atoms: _583  and  _584
REMARK  223  A    between atoms: _583  and  _586
REMARK  224  A    between atoms: _586  and  _587
REMARK                            x       y       z     vdW  Elec       q    Type
REMARK                         _______ _______ _______ _____ _____    ______ ____
ROOT
ATOM      1  CB  ASN A   1      22.062  34.876  19.657  0.00  0.00    +0.110 C 
ENDROOT
BRANCH   1   2
ATOM      2  CG  ASN A   1      23.259  34.537  18.730  0.00  0.00    +0.221 C 
ATOM      3  OD1 ASN A   1      23.647  33.371  18.594  0.00  0.00    -0.275 OA
ATOM      4  ND2 ASN A   1      23.842  35.581  18.078  0.00  0.00    -0.329 N 
ATOM      5 HD21 ASN A   1      23.485  36.547  18.220  0.00  0.00    +0.145 HD
ATOM      6 HD22 ASN A   1      24.644  35.412  17.438  0.00  0.00    +0.145 HD
ENDBRANCH   1   2
BRANCH   1   7
ATOM      7  CA  ASN A   1      21.253  33.628  20.118  0.00  0.00    +0.142 C 
BRANCH   7   8
ATOM      8  N   ASN A   1      21.990  32.788  21.073  0.00  0.00    -0.239 NA
ATOM      9  H   ASN A   1      23.024  32.706  20.993  0.00  0.00    +0.142 HD
ENDBRANCH   7   8
BRANCH   7  10
ATOM     10  C   ASN A   1      20.775  32.805  18.924  0.00  0.00    +0.225 C 
ATOM     11  O   ASN A   1      20.308  33.363  17.944  0.00  0.00    -0.287 OA
ENDBRANCH   7  10
ENDBRANCH   1   7
TORSDOF 4
REMARK  Name = ../refined-set-2016/2j62/2j62_pocket.pdb
REMARK  224 active torsions:
REMARK  status: ('A' for Active; 'I' for Inactive)
REMARK    1  A    between atoms: _1  and  _3
REMARK    2  A    between atoms: _3  and  _4
REMARK    3  A    between atoms: _3  and  _6
REMARK    4  A    between atoms: _9  and  _11
REMARK    5  A    between atoms: _11  and  _12
REMARK    6  A    between atoms: _11  and  _14
REMARK    7  A    between atoms: _14  and  _15
REMARK    8  A    between atoms: _15  and  _16
REMARK    9  A    between atoms: _19  and  _21
REMARK   10  A    between atoms: _21  and  _22
REMARK   11  A    between atoms: _24  and  _26
REMARK   12  A    between atoms: _26  and  _27
REMARK   13  A    between atoms: _26  and  _29
REMARK   14  A    between atoms: _29  and  _30
REMARK   15  A    between atoms: _36  and  _38
REMARK   16  A    between atoms: _38  and  _39
REMARK   17  A    between atoms: _38  and  _41
REMARK   18  A    between atoms: _41  and  _42
REMARK   19  A    between atoms: _47  and  _48
REMARK   20  A    between atoms: _50  and  _52
REMARK   21  A    between atoms: _52  and  _53
REMARK   22  A    between atoms: _55  and  _57
REMARK   23  A    between atoms: _57  and  _58
REMARK   24  A    between atoms: _62  and  _63
REMARK   25  A    between atoms: _68  and  _70
REMARK   26  A    between atoms: _70  and  _71
REMARK   27  A    between atoms: _70  and  _73
REMARK   28  A    between atoms: _73  and  _74
REMARK   29  A    between atoms: _74  and  _75
REMARK   30  A    between atoms: _75  and  _76
REMARK   31  A    between atoms: _76  and  _77
REMARK   32  A    between atoms: _81  and  _83
REMARK   33  A    between atoms: _83  and  _84
REMARK   34  A    between atoms: _83  and  _86
REMARK   35  A    between atoms: _86  and  _87
REMARK   36  A    between atoms: _90  and  _92
REMARK   37  A    between atoms: _92  and  _93
REMARK   38  A    between atoms: _92  and  _95
REMARK   39  A    between atoms: _95  and  _96
REMARK   40  A    between atoms: _96  and  _97
REMARK   41  A    between atoms: _97  and  _98
REMARK   42  A    between atoms: _107  and  _109
REMARK   43  A    between atoms: _109  and  _110
REMARK   44  A    between atoms: _109  and  _112
REMARK   45  A    between atoms: _112  and  _113
REMARK   46  A    between atoms: _115  and  _117
REMARK   47  A    between atoms: _117  and  _118
REMARK   48  A    between atoms: _117  and  _120
REMARK   49  A    between atoms: _120  and  _121
REMARK   50  A    between atoms: _126  and  _127
REMARK   51  A    between atoms: _129  and  _131
REMARK   52  A    between atoms: _131  and  _132
REMARK   53  A    between atoms: _131  and  _134
REMARK   54  A    between atoms: _134  and  _135
REMARK   55  A    between atoms: _145  and  _147
REMARK   56  A    between atoms: _147  and  _148
REMARK   57  A    between atoms: _147  and  _150
REMARK   58  A    between atoms: _150  and  _151
REMARK   59  A    between atoms: _154  and  _156
REMARK   60  A    between atoms: _156  and  _157
REMARK   61  A    between atoms: _156  and  _159
REMARK   62  A    between atoms: _159  and  _160
REMARK   63  A    between atoms: _163  and  _165
REMARK   64  A    between atoms: _165  and  _166
REMARK   65  A    between atoms: _165  and  _168
REMARK   66  A    between atoms: _168  and  _169
REMARK   67  A    between atoms: _172  and  _174
REMARK   68  A    between atoms: _174  and  _175
REMARK   69  A    between atoms: _174  and  _177
REMARK   70  A    between atoms: _177  and  _178
REMARK   71  A    between atoms: _181  and  _183
REMARK   72  A    between atoms: _183  and  _184
REMARK   73  A    between atoms: _183  and  _186
REMARK   74  A    between atoms: _190  and  _191
REMARK   75  A    between atoms: _196  and  _198
REMARK   76  A    between atoms: _198  and  _199
REMARK   77  A    between atoms: _198  and  _201
REMARK   78  A    between atoms: _201  and  _202
REMARK   79  A    between atoms: _205  and  _207
REMARK   80  A    between atoms: _207  and  _208
REMARK   81  A    between atoms: _207  and  _210
REMARK   82  A    between atoms: _210  and  _211
REMARK   83  A    between atoms: _211  and  _212
REMARK   84  A    between atoms: _215  and  _217
REMARK   85  A    between atoms: _217  and  _218
REMARK   86  A    between atoms: _217  and  _220
REMARK   87  A    between atoms: _220  and  _221
REMARK   88  A    between atoms: _226  and  _227
REMARK   89  A    between atoms: _229  and  _231
REMARK   90  A    between atoms: _231  and  _232
REMARK   91  A    between atoms: _231  and  _234
REMARK   92  A    between atoms: _234  and  _235
REMARK   93  A    between atoms: _238  and  _240
REMARK   94  A    between atoms: _240  and  _241
REMARK   95  A    between atoms: _240  and  _243
REMARK   96  A    between atoms: _243  and  _244
REMARK   97  A    between atoms: _244  and  _245
REMARK   98  A    between atoms: _247  and  _249
REMARK   99  A    between atoms: _249  and  _250
REMARK  100  A    between atoms: _249  and  _252
REMARK  101  A    between atoms: _252  and  _253
REMARK  102  A    between atoms: _263  and  _265
REMARK  103  A    between atoms: _265  and  _266
REMARK  104  A    between atoms: _265  and  _268
REMARK  105  A    between atoms: _268  and  _269
REMARK  106  A    between atoms: _272  and  _274
REMARK  107  A    between atoms: _274  and  _275
REMARK  108  A    between atoms: _277  and  _279
REMARK  109  A    between atoms: _279  and  _280
REMARK  110  A    between atoms: _282  and  _284
REMARK  111  A    between atoms: _284  and  _285
REMARK  112  A    between atoms: _284  and  _287
REMARK  113  A    between atoms: _290  and  _292
REMARK  114  A    between atoms: _292  and  _293
REMARK  115  A    between atoms: _292  and  _295
REMARK  116  A    between atoms: _298  and  _300
REMARK  117  A    between atoms: _300  and  _301
REMARK  118  A    between atoms: _300  and  _303
REMARK  119  A    between atoms: _306  and  _308
REMARK  120  A    between atoms: _308  and  _309
REMARK  121  A    between atoms: _308  and  _311
REMARK  122  A    between atoms: _311  and  _312
REMARK  123  A    between atoms: _322  and  _324
REMARK  124  A    between atoms: _324  and  _325
REMARK  125  A    between atoms: _324  and  _327
REMARK  126  A    between atoms: _327  and  _328
REMARK  127  A    between atoms: _338  and  _340
REMARK  128  A    between atoms: _340  and  _341
REMARK  129  A    between atoms: _340  and  _343
REMARK  130  A    between atoms: _343  and  _344
REMARK  131  A    between atoms: _349  and  _351
REMARK  132  A    between atoms: _351  and  _352
REMARK  133  A    between atoms: _351  and  _354
REMARK  134  A    between atoms: _354  and  _355
REMARK  135  A    between atoms: _360  and  _361
REMARK  136  A    between atoms: _363  and  _365
REMARK  137  A    between atoms: _365  and  _366
REMARK  138  A    between atoms: _365  and  _368
REMARK  139  A    between atoms: _371  and  _373
REMARK  140  A    between atoms: _373  and  _374
REMARK  141  A    between atoms: _373  and  _376
REMARK  142  A    between atoms: _376  and  _377
REMARK  143  A    between atoms: _380  and  _382
REMARK  144  A    between atoms: _382  and  _383
REMARK  145  A    between atoms: _382  and  _385
REMARK  146  A    between atoms: _385  and  _386
REMARK  147  A    between atoms: _389  and  _391
REMARK  148  A    between atoms: _391  and  _392
REMARK  149  A    between atoms: _391  and  _394
REMARK  150  A    between atoms: _394  and  _395
REMARK  151  A    between atoms: _400  and  _401
REMARK  152  A    between atoms: _403  and  _405
REMARK  153  A    between atoms: _405  and  _406
REMARK  154  A    between atoms: _405  and  _408
REMARK  155  A    between atoms: _408  and  _409
REMARK  156  A    between atoms: _415  and  _417
REMARK  157  A    between atoms: _417  and  _418
REMARK  158  A    between atoms: _417  and  _420
REMARK  159  A    between atoms: _420  and  _421
REMARK  160  A    between atoms: _427  and  _428
REMARK  161  A    between atoms: _433  and  _435
REMARK  162  A    between atoms: _435  and  _436
REMARK  163  A    between atoms: _435  and  _438
REMARK  164  A    between atoms: _438  and  _439
REMARK  165  A    between atoms: _444  and  _446
REMARK  166  A    between atoms: _446  and  _447
REMARK  167  A    between atoms: _446  and  _449
REMARK  168  A    between atoms: _449  and  _450
REMARK  169  A    between atoms: _460  and  _462
REMARK  170  A    between atoms: _462  and  _463
REMARK  171  A    between atoms: _466  and  _468
REMARK  172  A    between atoms: _468  and  _469
REMARK  173  A    between atoms: _468  and  _471
REMARK  174  A    between atoms: _471  and  _472
REMARK  175  A    between atoms: _482  and  _484
REMARK  176  A    between atoms: _484  and  _485
REMARK  177  A    between atoms: _484  and  _487
REMARK  178  A    between atoms: _487  and  _488
REMARK  179  A    between atoms: _488  and  _489
REMARK  180  A    between atoms: _489  and  _490
REMARK  181  A    between atoms: _490  and  _491
REMARK  182  A    between atoms: _495  and  _497
REMARK  183  A    between atoms: _497  and  _498
REMARK  184  A    between atoms: _497  and  _500
REMARK  185  A    between atoms: _500  and  _501
REMARK  186  A    between atoms: _504  and  _506
REMARK  187  A    between atoms: _506  and  _507
REMARK  188  A    between atoms: _506  and  _509
REMARK  189  A    between atoms: _509  and  _510
REMARK  190  A    between atoms: _512  and  _514
REMARK  191  A    between atoms: _514  and  _515
REMARK  192  A    between atoms: _514  and  _517
REMARK  193  A    between atoms: _517  and  _518
REMARK  194  A    between atoms: _520  and  _522
REMARK  195  A    between atoms: _522  and  _523
REMARK  196  A    between atoms: _522  and  _525
REMARK  197  A    between atoms: _525  and  _526
REMARK  198  A    between atoms: _526  and  _527
REMARK  199  A    between atoms: _527  and  _528
REMARK  200  A    between atoms: _528  and  _529
REMARK  201  A    between atoms: _533  and  _535
REMARK  202  A    between atoms: _535  and  _536
REMARK  203  A    between atoms: _535  and  _538
REMARK  204  A    between atoms: _538  and  _539
REMARK  205  A    between atoms: _545  and  _547
REMARK  206  A    between atoms: _547  and  _548
REMARK  207  A    between atoms: _547  and  _550
REMARK  208  A    between atoms: _550  and  _551
REMARK  209  A    between atoms: _554  and  _556
REMARK  210  A    between atoms: _556  and  _557
REMARK  211  A    between atoms: _556  and  _559
REMARK  212  A    between atoms: _559  and  _560
REMARK  213  A    between atoms: _563  and  _565
REMARK  214  A    between atoms: _565  and  _566
REMARK  215  A    between atoms: _565  and  _568
REMARK  216  A    between atoms: _568  and  _569
REMARK  217  A    between atoms: _572  and  _574
REMARK  218  A    between atoms: _574  and  _575
REMARK  219  A    between atoms: _574  and  _577
REMARK  220  A    between atoms: _577  and  _578
REMARK  221  A    between atoms: _581  and  _583
REMARK  222  A    between atoms: _583  and  _584
REMARK  223  A    between atoms: _583  and  _586
REMARK  224  A    between atoms: _586  and  _587
REMARK                            x       y       z     vdW  Elec       q    Type
REMARK                         _______ _______ _______ _____ _____    ______ ____
ROOT
ATOM      1  CA  TRP A   1      26.973  32.105  16.451  0.00  0.00    +0.149 C 
ENDROOT
BRANCH   1   2
ATOM      2  C   TRP A   1      27.345  32.243  17.940  0.00  0.00    +0.239 C 
ATOM      3  N   ALA A   2      26.435  32.724  18.772  0.00  0.00    -0.298 N 
ATOM      4  H   ALA A   2      25.471  32.905  18.426  0.00  0.00    +0.150 HD
ATOM      5  O   TRP A   1      28.443  31.921  18.325  0.00  0.00    -0.274 OA
BRANCH   3   6
ATOM      6  CA  ALA A   2      26.764  33.007  20.177  0.00  0.00    +0.137 C 
ATOM      7  CB  ALA A   2      26.395  34.428  20.532  0.00  0.00    +0.030 C 
BRANCH   6   8
ATOM      8  C   ALA A   2      26.085  32.021  21.121  0.00  0.00    +0.227 C 
ATOM      9  O   ALA A   2      24.858  31.924  21.140  0.00  0.00    -0.286 OA
ENDBRANCH   6   8
ENDBRANCH   3   6
ENDBRANCH   1   2
BRANCH   1  10
ATOM     10  N   TRP A   1      25.518  32.127  16.203  0.00  0.00    -0.238 NA
ATOM     11  H   TRP A   1      25.061  33.042  16.015  0.00  0.00    +0.142 HD
ENDBRANCH   1  10
BRANCH   1  12
ATOM     12  CB  TRP A   1      27.674  33.211  15.605  0.00  0.00    +0.054 C 
BRANCH  12  13
ATOM     13  CG  TRP A   1      27.172  34.582  15.936  0.00  0.00    -0.002 A 
ATOM     14  CD2 TRP A   1      27.660  35.461  16.974  0.00  0.00    +0.013 A 
ATOM     15  CE3 TRP A   1      28.702  35.371  17.921  0.00  0.00    +0.001 A 
ATOM     16  CZ3 TRP A   1      28.910  36.446  18.792  0.00  0.00    +0.000 A 
ATOM     17  CH2 TRP A   1      28.078  37.601  18.743  0.00  0.00    +0.001 A 
ATOM     18  CZ2 TRP A   1      27.059  37.712  17.816  0.00  0.00    +0.017 A 
ATOM     19  CE2 TRP A   1      26.866  36.646  16.934  0.00  0.00    +0.056 A 
ATOM     20  NE1 TRP A   1      25.934  36.483  15.943  0.00  0.00    -0.352 N 
ATOM     21  HE1 TRP A   1      25.204  37.175  15.680  0.00  0.00    +0.166 HD
ATOM     22  CD1 TRP A   1      26.123  35.239  15.345  0.00  0.00    +0.068 A 
ENDBRANCH  12  13
ENDBRANCH   1  12
TORSDOF 6
REMARK  Name = ../refined-set-2016/2j62/2j62_pocket.pdb
REMARK  224 active torsions:
REMARK  status: ('A' for Active; 'I' for Inactive)
REMARK    1  A    between atoms: _1  and  _3
REMARK    2  A    between atoms: _3  and  _4
REMARK    3  A    between atoms: _3  and  _6
REMARK    4  A    between atoms: _9  and  _11
REMARK    5  A    between atoms: _11  and  _12
REMARK    6  A    between atoms: _11  and  _14
REMARK    7  A    between atoms: _14  and  _15
REMARK    8  A    between atoms: _15  and  _16
REMARK    9  A    between atoms: _19  and  _21
REMARK   10  A    between atoms: _21  and  _22
REMARK   11  A    between atoms: _24  and  _26
REMARK   12  A    between atoms: _26  and  _27
REMARK   13  A    between atoms: _26  and  _29
REMARK   14  A    between atoms: _29  and  _30
REMARK   15  A    between atoms: _36  and  _38
REMARK   16  A    between atoms: _38  and  _39
REMARK   17  A    between atoms: _38  and  _41
REMARK   18  A    between atoms: _41  and  _42
REMARK   19  A    between atoms: _47  and  _48
REMARK   20  A    between atoms: _50  and  _52
REMARK   21  A    between atoms: _52  and  _53
REMARK   22  A    between atoms: _55  and  _57
REMARK   23  A    between atoms: _57  and  _58
REMARK   24  A    between atoms: _62  and  _63
REMARK   25  A    between atoms: _68  and  _70
REMARK   26  A    between atoms: _70  and  _71
REMARK   27  A    between atoms: _70  and  _73
REMARK   28  A    between atoms: _73  and  _74
REMARK   29  A    between atoms: _74  and  _75
REMARK   30  A    between atoms: _75  and  _76
REMARK   31  A    between atoms: _76  and  _77
REMARK   32  A    between atoms: _81  and  _83
REMARK   33  A    between atoms: _83  and  _84
REMARK   34  A    between atoms: _83  and  _86
REMARK   35  A    between atoms: _86  and  _87
REMARK   36  A    between atoms: _90  and  _92
REMARK   37  A    between atoms: _92  and  _93
REMARK   38  A    between atoms: _92  and  _95
REMARK   39  A    between atoms: _95  and  _96
REMARK   40  A    between atoms: _96  and  _97
REMARK   41  A    between atoms: _97  and  _98
REMARK   42  A    between atoms: _107  and  _109
REMARK   43  A    between atoms: _109  and  _110
REMARK   44  A    between atoms: _109  and  _112
REMARK   45  A    between atoms: _112  and  _113
REMARK   46  A    between atoms: _115  and  _117
REMARK   47  A    between atoms: _117  and  _118
REMARK   48  A    between atoms: _117  and  _120
REMARK   49  A    between atoms: _120  and  _121
REMARK   50  A    between atoms: _126  and  _127
REMARK   51  A    between atoms: _129  and  _131
REMARK   52  A    between atoms: _131  and  _132
REMARK   53  A    between atoms: _131  and  _134
REMARK   54  A    between atoms: _134  and  _135
REMARK   55  A    between atoms: _145  and  _147
REMARK   56  A    between atoms: _147  and  _148
REMARK   57  A    between atoms: _147  and  _150
REMARK   58  A    between atoms: _150  and  _151
REMARK   59  A    between atoms: _154  and  _156
REMARK   60  A    between atoms: _156  and  _157
REMARK   61  A    between atoms: _156  and  _159
REMARK   62  A    between atoms: _159  and  _160
REMARK   63  A    between atoms: _163  and  _165
REMARK   64  A    between atoms: _165  and  _166
REMARK   65  A    between atoms: _165  and  _168
REMARK   66  A    between atoms: _168  and  _169
REMARK   67  A    between atoms: _172  and  _174
REMARK   68  A    between atoms: _174  and  _175
REMARK   69  A    between atoms: _174  and  _177
REMARK   70  A    between atoms: _177  and  _178
REMARK   71  A    between atoms: _181  and  _183
REMARK   72  A    between atoms: _183  and  _184
REMARK   73  A    between atoms: _183  and  _186
REMARK   74  A    between atoms: _190  and  _191
REMARK   75  A    between atoms: _196  and  _198
REMARK   76  A    between atoms: _198  and  _199
REMARK   77  A    between atoms: _198  and  _201
REMARK   78  A    between atoms: _201  and  _202
REMARK   79  A    between atoms: _205  and  _207
REMARK   80  A    between atoms: _207  and  _208
REMARK   81  A    between atoms: _207  and  _210
REMARK   82  A    between atoms: _210  and  _211
REMARK   83  A    between atoms: _211  and  _212
REMARK   84  A    between atoms: _215  and  _217
REMARK   85  A    between atoms: _217  and  _218
REMARK   86  A    between atoms: _217  and  _220
REMARK   87  A    between atoms: _220  and  _221
REMARK   88  A    between atoms: _226  and  _227
REMARK   89  A    between atoms: _229  and  _231
REMARK   90  A    between atoms: _231  and  _232
REMARK   91  A    between atoms: _231  and  _234
REMARK   92  A    between atoms: _234  and  _235
REMARK   93  A    between atoms: _238  and  _240
REMARK   94  A    between atoms: _240  and  _241
REMARK   95  A    between atoms: _240  and  _243
REMARK   96  A    between atoms: _243  and  _244
REMARK   97  A    between atoms: _244  and  _245
REMARK   98  A    between atoms: _247  and  _249
REMARK   99  A    between atoms: _249  and  _250
REMARK  100  A    between atoms: _249  and  _252
REMARK  101  A    between atoms: _252  and  _253
REMARK  102  A    between atoms: _263  and  _265
REMARK  103  A    between atoms: _265  and  _266
REMARK  104  A    between atoms: _265  and  _268
REMARK  105  A    between atoms: _268  and  _269
REMARK  106  A    between atoms: _272  and  _274
REMARK  107  A    between atoms: _274  and  _275
REMARK  108  A    between atoms: _277  and  _279
REMARK  109  A    between atoms: _279  and  _280
REMARK  110  A    between atoms: _282  and  _284
REMARK  111  A    between atoms: _284  and  _285
REMARK  112  A    between atoms: _284  and  _287
REMARK  113  A    between atoms: _290  and  _292
REMARK  114  A    between atoms: _292  and  _293
REMARK  115  A    between atoms: _292  and  _295
REMARK  116  A    between atoms: _298  and  _300
REMARK  117  A    between atoms: _300  and  _301
REMARK  118  A    between atoms: _300  and  _303
REMARK  119  A    between atoms: _306  and  _308
REMARK  120  A    between atoms: _308  and  _309
REMARK  121  A    between atoms: _308  and  _311
REMARK  122  A    between atoms: _311  and  _312
REMARK  123  A    between atoms: _322  and  _324
REMARK  124  A    between atoms: _324  and  _325
REMARK  125  A    between atoms: _324  and  _327
REMARK  126  A    between atoms: _327  and  _328
REMARK  127  A    between atoms: _338  and  _340
REMARK  128  A    between atoms: _340  and  _341
REMARK  129  A    between atoms: _340  and  _343
REMARK  130  A    between atoms: _343  and  _344
REMARK  131  A    between atoms: _349  and  _351
REMARK  132  A    between atoms: _351  and  _352
REMARK  133  A    between atoms: _351  and  _354
REMARK  134  A    between atoms: _354  and  _355
REMARK  135  A    between atoms: _360  and  _361
REMARK  136  A    between atoms: _363  and  _365
REMARK  137  A    between atoms: _365  and  _366
REMARK  138  A    between atoms: _365  and  _368
REMARK  139  A    between atoms: _371  and  _373
REMARK  140  A    between atoms: _373  and  _374
REMARK  141  A    between atoms: _373  and  _376
REMARK  142  A    between atoms: _376  and  _377
REMARK  143  A    between atoms: _380  and  _382
REMARK  144  A    between atoms: _382  and  _383
REMARK  145  A    between atoms: _382  and  _385
REMARK  146  A    between atoms: _385  and  _386
REMARK  147  A    between atoms: _389  and  _391
REMARK  148  A    between atoms: _391  and  _392
REMARK  149  A    between atoms: _391  and  _394
REMARK  150  A    between atoms: _394  and  _395
REMARK  151  A    between atoms: _400  and  _401
REMARK  152  A    between atoms: _403  and  _405
REMARK  153  A    between atoms: _405  and  _406
REMARK  154  A    between atoms: _405  and  _408
REMARK  155  A    between atoms: _408  and  _409
REMARK  156  A    between atoms: _415  and  _417
REMARK  157  A    between atoms: _417  and  _418
REMARK  158  A    between atoms: _417  and  _420
REMARK  159  A    between atoms: _420  and  _421
REMARK  160  A    between atoms: _427  and  _428
REMARK  161  A    between atoms: _433  and  _435
REMARK  162  A    between atoms: _435  and  _436
REMARK  163  A    between atoms: _435  and  _438
REMARK  164  A    between atoms: _438  and  _439
REMARK  165  A    between atoms: _444  and  _446
REMARK  166  A    between atoms: _446  and  _447
REMARK  167  A    between atoms: _446  and  _449
REMARK  168  A    between atoms: _449  and  _450
REMARK  169  A    between atoms: _460  and  _462
REMARK  170  A    between atoms: _462  and  _463
REMARK  171  A    between atoms: _466  and  _468
REMARK  172  A    between atoms: _468  and  _469
REMARK  173  A    between atoms: _468  and  _471
REMARK  174  A    between atoms: _471  and  _472
REMARK  175  A    between atoms: _482  and  _484
REMARK  176  A    between atoms: _484  and  _485
REMARK  177  A    between atoms: _484  and  _487
REMARK  178  A    between atoms: _487  and  _488
REMARK  179  A    between atoms: _488  and  _489
REMARK  180  A    between atoms: _489  and  _490
REMARK  181  A    between atoms: _490  and  _491
REMARK  182  A    between atoms: _495  and  _497
REMARK  183  A    between atoms: _497  and  _498
REMARK  184  A    between atoms: _497  and  _500
REMARK  185  A    between atoms: _500  and  _501
REMARK  186  A    between atoms: _504  and  _506
REMARK  187  A    between atoms: _506  and  _507
REMARK  188  A    between atoms: _506  and  _509
REMARK  189  A    between atoms: _509  and  _510
REMARK  190  A    between atoms: _512  and  _514
REMARK  191  A    between atoms: _514  and  _515
REMARK  192  A    between atoms: _514  and  _517
REMARK  193  A    between atoms: _517  and  _518
REMARK  194  A    between atoms: _520  and  _522
REMARK  195  A    between atoms: _522  and  _523
REMARK  196  A    between atoms: _522  and  _525
REMARK  197  A    between atoms: _525  and  _526
REMARK  198  A    between atoms: _526  and  _527
REMARK  199  A    between atoms: _527  and  _528
REMARK  200  A    between atoms: _528  and  _529
REMARK  201  A    between atoms: _533  and  _535
REMARK  202  A    between atoms: _535  and  _536
REMARK  203  A    between atoms: _535  and  _538
REMARK  204  A    between atoms: _538  and  _539
REMARK  205  A    between atoms: _545  and  _547
REMARK  206  A    between atoms: _547  and  _548
REMARK  207  A    between atoms: _547  and  _550
REMARK  208  A    between atoms: _550  and  _551
REMARK  209  A    between atoms: _554  and  _556
REMARK  210  A    between atoms: _556  and  _557
REMARK  211  A    between atoms: _556  and  _559
REMARK  212  A    between atoms: _559  and  _560
REMARK  213  A    between atoms: _563  and  _565
REMARK  214  A    between atoms: _565  and  _566
REMARK  215  A    between atoms: _565  and  _568
REMARK  216  A    between atoms: _568  and  _569
REMARK  217  A    between atoms: _572  and  _574
REMARK  218  A    between atoms: _574  and  _575
REMARK  219  A    between atoms: _574  and  _577
REMARK  220  A    between atoms: _577  and  _578
REMARK  221  A    between atoms: _581  and  _583
REMARK  222  A    between atoms: _583  and  _584
REMARK  223  A    between atoms: _583  and  _586
REMARK  224  A    between atoms: _586  and  _587
REMARK                            x       y       z     vdW  Elec       q    Type
REMARK                         _______ _______ _______ _____ _____    ______ ____
ROOT
ATOM      1  CG  TRP A   1      23.428  32.694  10.653  0.00  0.00    -0.002 A 
ATOM      2  CD1 TRP A   1      22.647  31.552  10.672  0.00  0.00    +0.068 A 
ATOM      3  NE1 TRP A   1      21.331  31.880  10.424  0.00  0.00    -0.352 N 
ATOM      4  HE1 TRP A   1      20.537  31.209  10.418  0.00  0.00    +0.166 HD
ATOM      5  CE2 TRP A   1      21.229  33.228  10.186  0.00  0.00    +0.056 A 
ATOM      6  CZ2 TRP A   1      20.101  34.002   9.861  0.00  0.00    +0.017 A 
ATOM      7  CH2 TRP A   1      20.282  35.338   9.668  0.00  0.00    +0.001 A 
ATOM      8  CZ3 TRP A   1      21.540  35.929   9.814  0.00  0.00    +0.000 A 
ATOM      9  CE3 TRP A   1      22.680  35.153  10.143  0.00  0.00    +0.001 A 
ATOM     10  CD2 TRP A   1      22.524  33.784  10.322  0.00  0.00    +0.013 A 
ENDROOT
BRANCH   1  11
ATOM     11  CB  TRP A   1      24.907  32.769  10.920  0.00  0.00    +0.053 C 
BRANCH  11  12
ATOM     12  CA  TRP A   1      25.660  33.684   9.949  0.00  0.00    +0.137 C 
BRANCH  12  13
ATOM     13  N   TRP A   1      25.360  33.320   8.565  0.00  0.00    -0.239 NA
ATOM     14  H   TRP A   1      24.784  32.476   8.372  0.00  0.00    +0.142 HD
ENDBRANCH  12  13
BRANCH  12  15
ATOM     15  C   TRP A   1      27.151  33.690  10.262  0.00  0.00    +0.224 C 
ATOM     16  O   TRP A   1      27.632  34.595  10.974  0.00  0.00    -0.287 OA
ENDBRANCH  12  15
ENDBRANCH  11  12
ENDBRANCH   1  11
TORSDOF 4
REMARK  Name = ../refined-set-2016/2j62/2j62_pocket.pdb
REMARK  224 active torsions:
REMARK  status: ('A' for Active; 'I' for Inactive)
REMARK    1  A    between atoms: _1  and  _3
REMARK    2  A    between atoms: _3  and  _4
REMARK    3  A    between atoms: _3  and  _6
REMARK    4  A    between atoms: _9  and  _11
REMARK    5  A    between atoms: _11  and  _12
REMARK    6  A    between atoms: _11  and  _14
REMARK    7  A    between atoms: _14  and  _15
REMARK    8  A    between atoms: _15  and  _16
REMARK    9  A    between atoms: _19  and  _21
REMARK   10  A    between atoms: _21  and  _22
REMARK   11  A    between atoms: _24  and  _26
REMARK   12  A    between atoms: _26  and  _27
REMARK   13  A    between atoms: _26  and  _29
REMARK   14  A    between atoms: _29  and  _30
REMARK   15  A    between atoms: _36  and  _38
REMARK   16  A    between atoms: _38  and  _39
REMARK   17  A    between atoms: _38  and  _41
REMARK   18  A    between atoms: _41  and  _42
REMARK   19  A    between atoms: _47  and  _48
REMARK   20  A    between atoms: _50  and  _52
REMARK   21  A    between atoms: _52  and  _53
REMARK   22  A    between atoms: _55  and  _57
REMARK   23  A    between atoms: _57  and  _58
REMARK   24  A    between atoms: _62  and  _63
REMARK   25  A    between atoms: _68  and  _70
REMARK   26  A    between atoms: _70  and  _71
REMARK   27  A    between atoms: _70  and  _73
REMARK   28  A    between atoms: _73  and  _74
REMARK   29  A    between atoms: _74  and  _75
REMARK   30  A    between atoms: _75  and  _76
REMARK   31  A    between atoms: _76  and  _77
REMARK   32  A    between atoms: _81  and  _83
REMARK   33  A    between atoms: _83  and  _84
REMARK   34  A    between atoms: _83  and  _86
REMARK   35  A    between atoms: _86  and  _87
REMARK   36  A    between atoms: _90  and  _92
REMARK   37  A    between atoms: _92  and  _93
REMARK   38  A    between atoms: _92  and  _95
REMARK   39  A    between atoms: _95  and  _96
REMARK   40  A    between atoms: _96  and  _97
REMARK   41  A    between atoms: _97  and  _98
REMARK   42  A    between atoms: _107  and  _109
REMARK   43  A    between atoms: _109  and  _110
REMARK   44  A    between atoms: _109  and  _112
REMARK   45  A    between atoms: _112  and  _113
REMARK   46  A    between atoms: _115  and  _117
REMARK   47  A    between atoms: _117  and  _118
REMARK   48  A    between atoms: _117  and  _120
REMARK   49  A    between atoms: _120  and  _121
REMARK   50  A    between atoms: _126  and  _127
REMARK   51  A    between atoms: _129  and  _131
REMARK   52  A    between atoms: _131  and  _132
REMARK   53  A    between atoms: _131  and  _134
REMARK   54  A    between atoms: _134  and  _135
REMARK   55  A    between atoms: _145  and  _147
REMARK   56  A    between atoms: _147  and  _148
REMARK   57  A    between atoms: _147  and  _150
REMARK   58  A    between atoms: _150  and  _151
REMARK   59  A    between atoms: _154  and  _156
REMARK   60  A    between atoms: _156  and  _157
REMARK   61  A    between atoms: _156  and  _159
REMARK   62  A    between atoms: _159  and  _160
REMARK   63  A    between atoms: _163  and  _165
REMARK   64  A    between atoms: _165  and  _166
REMARK   65  A    between atoms: _165  and  _168
REMARK   66  A    between atoms: _168  and  _169
REMARK   67  A    between atoms: _172  and  _174
REMARK   68  A    between atoms: _174  and  _175
REMARK   69  A    between atoms: _174  and  _177
REMARK   70  A    between atoms: _177  and  _178
REMARK   71  A    between atoms: _181  and  _183
REMARK   72  A    between atoms: _183  and  _184
REMARK   73  A    between atoms: _183  and  _186
REMARK   74  A    between atoms: _190  and  _191
REMARK   75  A    between atoms: _196  and  _198
REMARK   76  A    between atoms: _198  and  _199
REMARK   77  A    between atoms: _198  and  _201
REMARK   78  A    between atoms: _201  and  _202
REMARK   79  A    between atoms: _205  and  _207
REMARK   80  A    between atoms: _207  and  _208
REMARK   81  A    between atoms: _207  and  _210
REMARK   82  A    between atoms: _210  and  _211
REMARK   83  A    between atoms: _211  and  _212
REMARK   84  A    between atoms: _215  and  _217
REMARK   85  A    between atoms: _217  and  _218
REMARK   86  A    between atoms: _217  and  _220
REMARK   87  A    between atoms: _220  and  _221
REMARK   88  A    between atoms: _226  and  _227
REMARK   89  A    between atoms: _229  and  _231
REMARK   90  A    between atoms: _231  and  _232
REMARK   91  A    between atoms: _231  and  _234
REMARK   92  A    between atoms: _234  and  _235
REMARK   93  A    between atoms: _238  and  _240
REMARK   94  A    between atoms: _240  and  _241
REMARK   95  A    between atoms: _240  and  _243
REMARK   96  A    between atoms: _243  and  _244
REMARK   97  A    between atoms: _244  and  _245
REMARK   98  A    between atoms: _247  and  _249
REMARK   99  A    between atoms: _249  and  _250
REMARK  100  A    between atoms: _249  and  _252
REMARK  101  A    between atoms: _252  and  _253
REMARK  102  A    between atoms: _263  and  _265
REMARK  103  A    between atoms: _265  and  _266
REMARK  104  A    between atoms: _265  and  _268
REMARK  105  A    between atoms: _268  and  _269
REMARK  106  A    between atoms: _272  and  _274
REMARK  107  A    between atoms: _274  and  _275
REMARK  108  A    between atoms: _277  and  _279
REMARK  109  A    between atoms: _279  and  _280
REMARK  110  A    between atoms: _282  and  _284
REMARK  111  A    between atoms: _284  and  _285
REMARK  112  A    between atoms: _284  and  _287
REMARK  113  A    between atoms: _290  and  _292
REMARK  114  A    between atoms: _292  and  _293
REMARK  115  A    between atoms: _292  and  _295
REMARK  116  A    between atoms: _298  and  _300
REMARK  117  A    between atoms: _300  and  _301
REMARK  118  A    between atoms: _300  and  _303
REMARK  119  A    between atoms: _306  and  _308
REMARK  120  A    between atoms: _308  and  _309
REMARK  121  A    between atoms: _308  and  _311
REMARK  122  A    between atoms: _311  and  _312
REMARK  123  A    between atoms: _322  and  _324
REMARK  124  A    between atoms: _324  and  _325
REMARK  125  A    between atoms: _324  and  _327
REMARK  126  A    between atoms: _327  and  _328
REMARK  127  A    between atoms: _338  and  _340
REMARK  128  A    between atoms: _340  and  _341
REMARK  129  A    between atoms: _340  and  _343
REMARK  130  A    between atoms: _343  and  _344
REMARK  131  A    between atoms: _349  and  _351
REMARK  132  A    between atoms: _351  and  _352
REMARK  133  A    between atoms: _351  and  _354
REMARK  134  A    between atoms: _354  and  _355
REMARK  135  A    between atoms: _360  and  _361
REMARK  136  A    between atoms: _363  and  _365
REMARK  137  A    between atoms: _365  and  _366
REMARK  138  A    between atoms: _365  and  _368
REMARK  139  A    between atoms: _371  and  _373
REMARK  140  A    between atoms: _373  and  _374
REMARK  141  A    between atoms: _373  and  _376
REMARK  142  A    between atoms: _376  and  _377
REMARK  143  A    between atoms: _380  and  _382
REMARK  144  A    between atoms: _382  and  _383
REMARK  145  A    between atoms: _382  and  _385
REMARK  146  A    between atoms: _385  and  _386
REMARK  147  A    between atoms: _389  and  _391
REMARK  148  A    between atoms: _391  and  _392
REMARK  149  A    between atoms: _391  and  _394
REMARK  150  A    between atoms: _394  and  _395
REMARK  151  A    between atoms: _400  and  _401
REMARK  152  A    between atoms: _403  and  _405
REMARK  153  A    between atoms: _405  and  _406
REMARK  154  A    between atoms: _405  and  _408
REMARK  155  A    between atoms: _408  and  _409
REMARK  156  A    between atoms: _415  and  _417
REMARK  157  A    between atoms: _417  and  _418
REMARK  158  A    between atoms: _417  and  _420
REMARK  159  A    between atoms: _420  and  _421
REMARK  160  A    between atoms: _427  and  _428
REMARK  161  A    between atoms: _433  and  _435
REMARK  162  A    between atoms: _435  and  _436
REMARK  163  A    between atoms: _435  and  _438
REMARK  164  A    between atoms: _438  and  _439
REMARK  165  A    between atoms: _444  and  _446
REMARK  166  A    between atoms: _446  and  _447
REMARK  167  A    between atoms: _446  and  _449
REMARK  168  A    between atoms: _449  and  _450
REMARK  169  A    between atoms: _460  and  _462
REMARK  170  A    between atoms: _462  and  _463
REMARK  171  A    between atoms: _466  and  _468
REMARK  172  A    between atoms: _468  and  _469
REMARK  173  A    between atoms: _468  and  _471
REMARK  174  A    between atoms: _471  and  _472
REMARK  175  A    between atoms: _482  and  _484
REMARK  176  A    between atoms: _484  and  _485
REMARK  177  A    between atoms: _484  and  _487
REMARK  178  A    between atoms: _487  and  _488
REMARK  179  A    between atoms: _488  and  _489
REMARK  180  A    between atoms: _489  and  _490
REMARK  181  A    between atoms: _490  and  _491
REMARK  182  A    between atoms: _495  and  _497
REMARK  183  A    between atoms: _497  and  _498
REMARK  184  A    between atoms: _497  and  _500
REMARK  185  A    between atoms: _500  and  _501
REMARK  186  A    between atoms: _504  and  _506
REMARK  187  A    between atoms: _506  and  _507
REMARK  188  A    between atoms: _506  and  _509
REMARK  189  A    between atoms: _509  and  _510
REMARK  190  A    between atoms: _512  and  _514
REMARK  191  A    between atoms: _514  and  _515
REMARK  192  A    between atoms: _514  and  _517
REMARK  193  A    between atoms: _517  and  _518
REMARK  194  A    between atoms: _520  and  _522
REMARK  195  A    between atoms: _522  and  _523
REMARK  196  A    between atoms: _522  and  _525
REMARK  197  A    between atoms: _525  and  _526
REMARK  198  A    between atoms: _526  and  _527
REMARK  199  A    between atoms: _527  and  _528
REMARK  200  A    between atoms: _528  and  _529
REMARK  201  A    between atoms: _533  and  _535
REMARK  202  A    between atoms: _535  and  _536
REMARK  203  A    between atoms: _535  and  _538
REMARK  204  A    between atoms: _538  and  _539
REMARK  205  A    between atoms: _545  and  _547
REMARK  206  A    between atoms: _547  and  _548
REMARK  207  A    between atoms: _547  and  _550
REMARK  208  A    between atoms: _550  and  _551
REMARK  209  A    between atoms: _554  and  _556
REMARK  210  A    between atoms: _556  and  _557
REMARK  211  A    between atoms: _556  and  _559
REMARK  212  A    between atoms: _559  and  _560
REMARK  213  A    between atoms: _563  and  _565
REMARK  214  A    between atoms: _565  and  _566
REMARK  215  A    between atoms: _565  and  _568
REMARK  216  A    between atoms: _568  and  _569
REMARK  217  A    between atoms: _572  and  _574
REMARK  218  A    between atoms: _574  and  _575
REMARK  219  A    between atoms: _574  and  _577
REMARK  220  A    between atoms: _577  and  _578
REMARK  221  A    between atoms: _581  and  _583
REMARK  222  A    between atoms: _583  and  _584
REMARK  223  A    between atoms: _583  and  _586
REMARK  224  A    between atoms: _586  and  _587
REMARK                            x       y       z     vdW  Elec       q    Type
REMARK                         _______ _______ _______ _____ _____    ______ ____
ROOT
ATOM      1  CA  SER A   3      29.340  37.364  12.780  0.00  0.00    +0.178 C 
ENDROOT
BRANCH   1   3
ATOM      2  C   LEU A   2      28.672  38.363  10.685  0.00  0.00    +0.241 C 
ATOM      3  N   SER A   3      28.680  37.307  11.482  0.00  0.00    -0.295 N 
ATOM      4  H   SER A   3      28.211  36.429  11.180  0.00  0.00    +0.150 HD
ATOM      5  O   LEU A   2      29.221  39.416  10.984  0.00  0.00    -0.273 OA
BRANCH   2   6
ATOM      6  CA  LEU A   2      28.011  38.185   9.313  0.00  0.00    +0.149 C 
BRANCH   6   8
ATOM      7  C   LYS A   1      29.760  36.864   8.299  0.00  0.00    +0.238 C 
ATOM      8  N   LEU A   2      28.493  36.956   8.692  0.00  0.00    -0.297 N 
ATOM      9  H   LEU A   2      27.846  36.153   8.557  0.00  0.00    +0.150 HD
ATOM     10  O   LYS A   1      30.584  37.756   8.509  0.00  0.00    -0.274 OA
BRANCH   7  11
ATOM     11  CA  LYS A   1      30.155  35.605   7.525  0.00  0.00    +0.145 C 
BRANCH  11  12
ATOM     12  N   LYS A   1      29.633  34.362   8.123  0.00  0.00    -0.238 NA
ATOM     13  H   LYS A   1      28.977  33.776   7.568  0.00  0.00    +0.142 HD
ENDBRANCH  11  12
BRANCH  11  14
ATOM     14  CB  LYS A   1      29.698  35.753   6.056  0.00  0.00    +0.026 C 
BRANCH  14  15
ATOM     15  CG  LYS A   1      30.279  34.710   5.090  0.00  0.00    -0.000 C 
BRANCH  15  16
ATOM     16  CD  LYS A   1      29.883  35.004   3.627  0.00  0.00    -0.024 C 
BRANCH  16  17
ATOM     17  CE  LYS A   1      30.282  33.882   2.643  0.00  0.00    -0.086 C 
BRANCH  17  18
ATOM     18  NZ  LYS A   1      31.679  33.405   2.867  0.00  0.00    +0.380 N 
ATOM     19  HZ1 LYS A   1      31.766  33.033   3.834  0.00  0.00    -0.089 HD
ATOM     20  HZ2 LYS A   1      32.340  34.198   2.738  0.00  0.00    -0.089 HD
ATOM     21  HZ3 LYS A   1      31.901  32.653   2.184  0.00  0.00    -0.089 HD
ENDBRANCH  17  18
ENDBRANCH  16  17
ENDBRANCH  15  16
ENDBRANCH  14  15
ENDBRANCH  11  14
ENDBRANCH   7  11
ENDBRANCH   6   8
BRANCH   6  22
ATOM     22  CB  LEU A   2      26.476  38.222   9.385  0.00  0.00    +0.029 C 
BRANCH  22  23
ATOM     23  CG  LEU A   2      25.701  38.365   8.051  0.00  0.00    +0.002 C 
ATOM     24  CD2 LEU A   2      24.201  38.430   8.279  0.00  0.00    +0.000 C 
ATOM     25  CD1 LEU A   2      26.148  39.559   7.218  0.00  0.00    +0.000 C 
ENDBRANCH  22  23
ENDBRANCH   6  22
ENDBRANCH   2   6
ENDBRANCH   1   3
BRANCH   1  26
ATOM     26  C   SER A   3      30.855  37.573  12.679  0.00  0.00    +0.243 C 
ATOM     27  O   SER A   3      31.465  38.097  13.613  0.00  0.00    -0.273 OA
ATOM     28  N   SER A   4      31.451  37.174  11.551  0.00  0.00    -0.295 N 
ATOM     29  H   SER A   4      30.889  36.664  10.840  0.00  0.00    +0.150 HD
BRANCH  28  30
ATOM     30  CA  SER A   4      32.878  37.432  11.280  0.00  0.00    +0.178 C 
BRANCH  30  31
ATOM     31  C   SER A   4      33.088  38.788  10.612  0.00  0.00    +0.243 C 
ATOM     32  N   LYS A   5      32.002  39.520  10.356  0.00  0.00    -0.298 N 
ATOM     33  H   LYS A   5      31.065  39.145  10.608  0.00  0.00    +0.150 HD
ATOM     34  O   SER A   4      34.222  39.145  10.291  0.00  0.00    -0.273 OA
BRANCH  32  35
ATOM     35  CA  LYS A   5      32.099  40.837   9.730  0.00  0.00    +0.137 C 
BRANCH  35  36
ATOM     36  C   LYS A   5      32.717  40.745   8.335  0.00  0.00    +0.227 C 
ATOM     37  O   LYS A   5      33.472  41.619   7.910  0.00  0.00    -0.286 OA
ENDBRANCH  35  36
BRANCH  35  38
ATOM     38  CB  LYS A   5      32.917  41.783  10.617  0.00  0.00    +0.028 C 
BRANCH  38  39
ATOM     39  CG  LYS A   5      32.109  42.851  11.339  0.00  0.00    -0.000 C 
BRANCH  39  40
ATOM     40  CD  LYS A   5      31.293  42.352  12.517  0.00  0.00    -0.024 C 
BRANCH  40  41
ATOM     41  CE  LYS A   5      30.274  43.446  12.963  0.00  0.00    -0.086 C 
BRANCH  41  42
ATOM     42  NZ  LYS A   5      30.931  44.681  13.559  0.00  0.00    +0.380 N 
ATOM     43  HZ1 LYS A   5      31.482  44.408  14.398  0.00  0.00    -0.089 HD
ATOM     44  HZ2 LYS A   5      30.197  45.365  13.833  0.00  0.00    -0.089 HD
ATOM     45  HZ3 LYS A   5      31.562  45.112  12.853  0.00  0.00    -0.089 HD
ENDBRANCH  41  42
ENDBRANCH  40  41
ENDBRANCH  39  40
ENDBRANCH  38  39
ENDBRANCH  35  38
ENDBRANCH  32  35
ENDBRANCH  30  31
BRANCH  30  46
ATOM     46  CB  SER A   4      33.468  36.347  10.362  0.00  0.00    +0.166 C 
BRANCH  46  47
ATOM     47  OG  SER A   4      33.350  35.065  10.942  0.00  0.00    -0.380 OA
ATOM     48  H   SER A   4      32.394  34.861  11.097  0.00  0.00    +0.211 HD
ENDBRANCH  46  47
ENDBRANCH  30  46
ENDBRANCH  28  30
ENDBRANCH   1  26
BRANCH   1  49
ATOM     49  CB  SER A   3      29.012  36.121  13.607  0.00  0.00    +0.166 C 
BRANCH  49  50
ATOM     50  OG  SER A   3      29.451  34.938  12.963  0.00  0.00    -0.380 OA
ATOM     51  H   SER A   3      29.004  34.857  12.084  0.00  0.00    +0.211 HD
ENDBRANCH  49  50
ENDBRANCH   1  49
TORSDOF 26
REMARK  Name = ../refined-set-2016/2j62/2j62_pocket.pdb
REMARK  224 active torsions:
REMARK  status: ('A' for Active; 'I' for Inactive)
REMARK    1  A    between atoms: _1  and  _3
REMARK    2  A    between atoms: _3  and  _4
REMARK    3  A    between atoms: _3  and  _6
REMARK    4  A    between atoms: _9  and  _11
REMARK    5  A    between atoms: _11  and  _12
REMARK    6  A    between atoms: _11  and  _14
REMARK    7  A    between atoms: _14  and  _15
REMARK    8  A    between atoms: _15  and  _16
REMARK    9  A    between atoms: _19  and  _21
REMARK   10  A    between atoms: _21  and  _22
REMARK   11  A    between atoms: _24  and  _26
REMARK   12  A    between atoms: _26  and  _27
REMARK   13  A    between atoms: _26  and  _29
REMARK   14  A    between atoms: _29  and  _30
REMARK   15  A    between atoms: _36  and  _38
REMARK   16  A    between atoms: _38  and  _39
REMARK   17  A    between atoms: _38  and  _41
REMARK   18  A    between atoms: _41  and  _42
REMARK   19  A    between atoms: _47  and  _48
REMARK   20  A    between atoms: _50  and  _52
REMARK   21  A    between atoms: _52  and  _53
REMARK   22  A    between atoms: _55  and  _57
REMARK   23  A    between atoms: _57  and  _58
REMARK   24  A    between atoms: _62  and  _63
REMARK   25  A    between atoms: _68  and  _70
REMARK   26  A    between atoms: _70  and  _71
REMARK   27  A    between atoms: _70  and  _73
REMARK   28  A    between atoms: _73  and  _74
REMARK   29  A    between atoms: _74  and  _75
REMARK   30  A    between atoms: _75  and  _76
REMARK   31  A    between atoms: _76  and  _77
REMARK   32  A    between atoms: _81  and  _83
REMARK   33  A    between atoms: _83  and  _84
REMARK   34  A    between atoms: _83  and  _86
REMARK   35  A    between atoms: _86  and  _87
REMARK   36  A    between atoms: _90  and  _92
REMARK   37  A    between atoms: _92  and  _93
REMARK   38  A    between atoms: _92  and  _95
REMARK   39  A    between atoms: _95  and  _96
REMARK   40  A    between atoms: _96  and  _97
REMARK   41  A    between atoms: _97  and  _98
REMARK   42  A    between atoms: _107  and  _109
REMARK   43  A    between atoms: _109  and  _110
REMARK   44  A    between atoms: _109  and  _112
REMARK   45  A    between atoms: _112  and  _113
REMARK   46  A    between atoms: _115  and  _117
REMARK   47  A    between atoms: _117  and  _118
REMARK   48  A    between atoms: _117  and  _120
REMARK   49  A    between atoms: _120  and  _121
REMARK   50  A    between atoms: _126  and  _127
REMARK   51  A    between atoms: _129  and  _131
REMARK   52  A    between atoms: _131  and  _132
REMARK   53  A    between atoms: _131  and  _134
REMARK   54  A    between atoms: _134  and  _135
REMARK   55  A    between atoms: _145  and  _147
REMARK   56  A    between atoms: _147  and  _148
REMARK   57  A    between atoms: _147  and  _150
REMARK   58  A    between atoms: _150  and  _151
REMARK   59  A    between atoms: _154  and  _156
REMARK   60  A    between atoms: _156  and  _157
REMARK   61  A    between atoms: _156  and  _159
REMARK   62  A    between atoms: _159  and  _160
REMARK   63  A    between atoms: _163  and  _165
REMARK   64  A    between atoms: _165  and  _166
REMARK   65  A    between atoms: _165  and  _168
REMARK   66  A    between atoms: _168  and  _169
REMARK   67  A    between atoms: _172  and  _174
REMARK   68  A    between atoms: _174  and  _175
REMARK   69  A    between atoms: _174  and  _177
REMARK   70  A    between atoms: _177  and  _178
REMARK   71  A    between atoms: _181  and  _183
REMARK   72  A    between atoms: _183  and  _184
REMARK   73  A    between atoms: _183  and  _186
REMARK   74  A    between atoms: _190  and  _191
REMARK   75  A    between atoms: _196  and  _198
REMARK   76  A    between atoms: _198  and  _199
REMARK   77  A    between atoms: _198  and  _201
REMARK   78  A    between atoms: _201  and  _202
REMARK   79  A    between atoms: _205  and  _207
REMARK   80  A    between atoms: _207  and  _208
REMARK   81  A    between atoms: _207  and  _210
REMARK   82  A    between atoms: _210  and  _211
REMARK   83  A    between atoms: _211  and  _212
REMARK   84  A    between atoms: _215  and  _217
REMARK   85  A    between atoms: _217  and  _218
REMARK   86  A    between atoms: _217  and  _220
REMARK   87  A    between atoms: _220  and  _221
REMARK   88  A    between atoms: _226  and  _227
REMARK   89  A    between atoms: _229  and  _231
REMARK   90  A    between atoms: _231  and  _232
REMARK   91  A    between atoms: _231  and  _234
REMARK   92  A    between atoms: _234  and  _235
REMARK   93  A    between atoms: _238  and  _240
REMARK   94  A    between atoms: _240  and  _241
REMARK   95  A    between atoms: _240  and  _243
REMARK   96  A    between atoms: _243  and  _244
REMARK   97  A    between atoms: _244  and  _245
REMARK   98  A    between atoms: _247  and  _249
REMARK   99  A    between atoms: _249  and  _250
REMARK  100  A    between atoms: _249  and  _252
REMARK  101  A    between atoms: _252  and  _253
REMARK  102  A    between atoms: _263  and  _265
REMARK  103  A    between atoms: _265  and  _266
REMARK  104  A    between atoms: _265  and  _268
REMARK  105  A    between atoms: _268  and  _269
REMARK  106  A    between atoms: _272  and  _274
REMARK  107  A    between atoms: _274  and  _275
REMARK  108  A    between atoms: _277  and  _279
REMARK  109  A    between atoms: _279  and  _280
REMARK  110  A    between atoms: _282  and  _284
REMARK  111  A    between atoms: _284  and  _285
REMARK  112  A    between atoms: _284  and  _287
REMARK  113  A    between atoms: _290  and  _292
REMARK  114  A    between atoms: _292  and  _293
REMARK  115  A    between atoms: _292  and  _295
REMARK  116  A    between atoms: _298  and  _300
REMARK  117  A    between atoms: _300  and  _301
REMARK  118  A    between atoms: _300  and  _303
REMARK  119  A    between atoms: _306  and  _308
REMARK  120  A    between atoms: _308  and  _309
REMARK  121  A    between atoms: _308  and  _311
REMARK  122  A    between atoms: _311  and  _312
REMARK  123  A    between atoms: _322  and  _324
REMARK  124  A    between atoms: _324  and  _325
REMARK  125  A    between atoms: _324  and  _327
REMARK  126  A    between atoms: _327  and  _328
REMARK  127  A    between atoms: _338  and  _340
REMARK  128  A    between atoms: _340  and  _341
REMARK  129  A    between atoms: _340  and  _343
REMARK  130  A    between atoms: _343  and  _344
REMARK  131  A    between atoms: _349  and  _351
REMARK  132  A    between atoms: _351  and  _352
REMARK  133  A    between atoms: _351  and  _354
REMARK  134  A    between atoms: _354  and  _355
REMARK  135  A    between atoms: _360  and  _361
REMARK  136  A    between atoms: _363  and  _365
REMARK  137  A    between atoms: _365  and  _366
REMARK  138  A    between atoms: _365  and  _368
REMARK  139  A    between atoms: _371  and  _373
REMARK  140  A    between atoms: _373  and  _374
REMARK  141  A    between atoms: _373  and  _376
REMARK  142  A    between atoms: _376  and  _377
REMARK  143  A    between atoms: _380  and  _382
REMARK  144  A    between atoms: _382  and  _383
REMARK  145  A    between atoms: _382  and  _385
REMARK  146  A    between atoms: _385  and  _386
REMARK  147  A    between atoms: _389  and  _391
REMARK  148  A    between atoms: _391  and  _392
REMARK  149  A    between atoms: _391  and  _394
REMARK  150  A    between atoms: _394  and  _395
REMARK  151  A    between atoms: _400  and  _401
REMARK  152  A    between atoms: _403  and  _405
REMARK  153  A    between atoms: _405  and  _406
REMARK  154  A    between atoms: _405  and  _408
REMARK  155  A    between atoms: _408  and  _409
REMARK  156  A    between atoms: _415  and  _417
REMARK  157  A    between atoms: _417  and  _418
REMARK  158  A    between atoms: _417  and  _420
REMARK  159  A    between atoms: _420  and  _421
REMARK  160  A    between atoms: _427  and  _428
REMARK  161  A    between atoms: _433  and  _435
REMARK  162  A    between atoms: _435  and  _436
REMARK  163  A    between atoms: _435  and  _438
REMARK  164  A    between atoms: _438  and  _439
REMARK  165  A    between atoms: _444  and  _446
REMARK  166  A    between atoms: _446  and  _447
REMARK  167  A    between atoms: _446  and  _449
REMARK  168  A    between atoms: _449  and  _450
REMARK  169  A    between atoms: _460  and  _462
REMARK  170  A    between atoms: _462  and  _463
REMARK  171  A    between atoms: _466  and  _468
REMARK  172  A    between atoms: _468  and  _469
REMARK  173  A    between atoms: _468  and  _471
REMARK  174  A    between atoms: _471  and  _472
REMARK  175  A    between atoms: _482  and  _484
REMARK  176  A    between atoms: _484  and  _485
REMARK  177  A    between atoms: _484  and  _487
REMARK  178  A    between atoms: _487  and  _488
REMARK  179  A    between atoms: _488  and  _489
REMARK  180  A    between atoms: _489  and  _490
REMARK  181  A    between atoms: _490  and  _491
REMARK  182  A    between atoms: _495  and  _497
REMARK  183  A    between atoms: _497  and  _498
REMARK  184  A    between atoms: _497  and  _500
REMARK  185  A    between atoms: _500  and  _501
REMARK  186  A    between atoms: _504  and  _506
REMARK  187  A    between atoms: _506  and  _507
REMARK  188  A    between atoms: _506  and  _509
REMARK  189  A    between atoms: _509  and  _510
REMARK  190  A    between atoms: _512  and  _514
REMARK  191  A    between atoms: _514  and  _515
REMARK  192  A    between atoms: _514  and  _517
REMARK  193  A    between atoms: _517  and  _518
REMARK  194  A    between atoms: _520  and  _522
REMARK  195  A    between atoms: _522  and  _523
REMARK  196  A    between atoms: _522  and  _525
REMARK  197  A    between atoms: _525  and  _526
REMARK  198  A    between atoms: _526  and  _527
REMARK  199  A    between atoms: _527  and  _528
REMARK  200  A    between atoms: _528  and  _529
REMARK  201  A    between atoms: _533  and  _535
REMARK  202  A    between atoms: _535  and  _536
REMARK  203  A    between atoms: _535  and  _538
REMARK  204  A    between atoms: _538  and  _539
REMARK  205  A    between atoms: _545  and  _547
REMARK  206  A    between atoms: _547  and  _548
REMARK  207  A    between atoms: _547  and  _550
REMARK  208  A    between atoms: _550  and  _551
REMARK  209  A    between atoms: _554  and  _556
REMARK  210  A    between atoms: _556  and  _557
REMARK  211  A    between atoms: _556  and  _559
REMARK  212  A    between atoms: _559  and  _560
REMARK  213  A    between atoms: _563  and  _565
REMARK  214  A    between atoms: _565  and  _566
REMARK  215  A    between atoms: _565  and  _568
REMARK  216  A    between atoms: _568  and  _569
REMARK  217  A    between atoms: _572  and  _574
REMARK  218  A    between atoms: _574  and  _575
REMARK  219  A    between atoms: _574  and  _577
REMARK  220  A    between atoms: _577  and  _578
REMARK  221  A    between atoms: _581  and  _583
REMARK  222  A    between atoms: _583  and  _584
REMARK  223  A    between atoms: _583  and  _586
REMARK  224  A    between atoms: _586  and  _587
REMARK                            x       y       z     vdW  Elec       q    Type
REMARK                         _______ _______ _______ _____ _____    ______ ____
ROOT
ATOM      1  C   LEU A   3      23.160  45.244  14.093  0.00  0.00    +0.241 C 
ATOM      2  N   THR A   4      22.378  45.642  15.093  0.00  0.00    -0.295 N 
ATOM      3  H   THR A   4      21.856  44.939  15.654  0.00  0.00    +0.150 HD
ATOM      4  O   LEU A   3      23.796  46.041  13.407  0.00  0.00    -0.273 OA
ENDROOT
BRANCH   2   5
ATOM      5  CA  THR A   4      22.251  47.064  15.405  0.00  0.00    +0.176 C 
BRANCH   5   6
ATOM      6  C   THR A   4      23.407  47.442  16.321  0.00  0.00    +0.243 C 
ATOM      7  O   THR A   4      23.518  48.588  16.746  0.00  0.00    -0.273 OA
ATOM      8  N   LEU A   5      24.251  46.460  16.637  0.00  0.00    -0.297 N 
ATOM      9  H   LEU A   5      24.121  45.520  16.210  0.00  0.00    +0.150 HD
BRANCH   8  10
ATOM     10  CA  LEU A   5      25.343  46.673  17.560  0.00  0.00    +0.149 C 
BRANCH  10  11
ATOM     11  C   LEU A   5      26.398  47.487  16.869  0.00  0.00    +0.241 C 
ATOM     12  N   ILE A   6      26.510  48.738  17.307  0.00  0.00    -0.295 N 
ATOM     13  H   ILE A   6      25.954  49.023  18.138  0.00  0.00    +0.150 HD
ATOM     14  O   LEU A   5      27.078  46.997  15.964  0.00  0.00    -0.273 OA
BRANCH  12  15
ATOM     15  CA  ILE A   6      27.371  49.724  16.681  0.00  0.00    +0.176 C 
BRANCH  15  16
ATOM     16  C   ILE A   6      27.779  50.782  17.724  0.00  0.00    +0.382 C 
ATOM     17  OXT ILE A   6      27.050  51.096  18.672  0.00  0.00    -0.244 OA
ATOM     18  O   ILE A   6      28.859  51.352  17.662  0.00  0.00    -0.244 OA
ENDBRANCH  15  16
BRANCH  15  19
ATOM     19  CB  ILE A   6      26.662  50.358  15.420  0.00  0.00    +0.029 C 
ATOM     20  CG2 ILE A   6      25.831  51.611  15.780  0.00  0.00    +0.002 C 
BRANCH  19  21
ATOM     21  CG1 ILE A   6      27.633  50.546  14.229  0.00  0.00    +0.002 C 
ATOM     22  CD1 ILE A   6      29.029  51.129  14.548  0.00  0.00    +0.000 C 
ENDBRANCH  19  21
ENDBRANCH  15  19
ENDBRANCH  12  15
ENDBRANCH  10  11
BRANCH  10  23
ATOM     23  CB  LEU A   5      25.927  45.355  18.059  0.00  0.00    +0.029 C 
BRANCH  23  24
ATOM     24  CG  LEU A   5      25.048  44.496  18.974  0.00  0.00    +0.002 C 
ATOM     25  CD2 LEU A   5      24.279  45.344  19.997  0.00  0.00    +0.000 C 
ATOM     26  CD1 LEU A   5      25.942  43.479  19.659  0.00  0.00    +0.000 C 
ENDBRANCH  23  24
ENDBRANCH  10  23
ENDBRANCH   8  10
ENDBRANCH   5   6
BRANCH   5  27
ATOM     27  CB  THR A   4      20.941  47.385  16.131  0.00  0.00    +0.137 C 
ATOM     28  CG2 THR A   4      19.704  47.003  15.287  0.00  0.00    +0.034 C 
BRANCH  27  29
ATOM     29  OG1 THR A   4      20.920  46.680  17.375  0.00  0.00    -0.382 OA
ATOM     30  HG1 THR A   4      20.979  45.707  17.203  0.00  0.00    +0.210 HD
ENDBRANCH  27  29
ENDBRANCH   5  27
ENDBRANCH   2   5
BRANCH   1  31
ATOM     31  CA  LEU A   3      23.277  43.723  13.861  0.00  0.00    +0.149 C 
BRANCH  31  34
ATOM     32  C   ASP A   2      22.735  42.375  15.755  0.00  0.00    +0.241 C 
ATOM     33  O   ASP A   2      23.945  42.351  16.080  0.00  0.00    -0.273 OA
ATOM     34  N   LEU A   3      22.313  42.957  14.646  0.00  0.00    -0.297 N 
ATOM     35  H   LEU A   3      21.322  42.872  14.341  0.00  0.00    +0.150 HD
BRANCH  32  36
ATOM     36  CA  ASP A   2      21.650  41.745  16.616  0.00  0.00    +0.160 C 
BRANCH  36  38
ATOM     37  C   PHE A   1      20.869  39.803  15.457  0.00  0.00    +0.239 C 
ATOM     38  N   ASP A   2      21.609  40.306  16.425  0.00  0.00    -0.297 N 
ATOM     39  H   ASP A   2      22.158  39.678  17.046  0.00  0.00    +0.150 HD
ATOM     40  O   PHE A   1      20.223  40.512  14.698  0.00  0.00    -0.274 OA
BRANCH  37  41
ATOM     41  CA  PHE A   1      20.834  38.295  15.338  0.00  0.00    +0.149 C 
BRANCH  41  42
ATOM     42  N   PHE A   1      19.484  37.834  15.676  0.00  0.00    -0.238 NA
ATOM     43  H   PHE A   1      18.752  37.805  14.938  0.00  0.00    +0.142 HD
ENDBRANCH  41  42
BRANCH  41  44
ATOM     44  CB  PHE A   1      21.228  37.848  13.918  0.00  0.00    +0.053 C 
BRANCH  44  45
ATOM     45  CG  PHE A   1      22.737  37.878  13.631  0.00  0.00    -0.020 A 
ATOM     46  CD2 PHE A   1      23.527  38.977  13.967  0.00  0.00    -0.004 A 
ATOM     47  CE2 PHE A   1      24.884  39.003  13.685  0.00  0.00    -0.000 A 
ATOM     48  CZ  PHE A   1      25.479  37.920  13.034  0.00  0.00    -0.000 A 
ATOM     49  CE1 PHE A   1      24.714  36.824  12.716  0.00  0.00    -0.000 A 
ATOM     50  CD1 PHE A   1      23.348  36.803  13.018  0.00  0.00    -0.004 A 
ENDBRANCH  44  45
ENDBRANCH  41  44
ENDBRANCH  37  41
ENDBRANCH  36  38
BRANCH  36  51
ATOM     51  CB  ASP A   2      21.869  42.072  18.082  0.00  0.00    +0.143 C 
BRANCH  51  52
ATOM     52  CG  ASP A   2      21.311  43.423  18.472  0.00  0.00    +0.367 C 
ATOM     53  OD2 ASP A   2      20.858  43.520  19.646  0.00  0.00    -0.246 OA
ATOM     54  OD1 ASP A   2      21.328  44.366  17.633  0.00  0.00    -0.246 OA
ENDBRANCH  51  52
ENDBRANCH  36  51
ENDBRANCH  32  36
ENDBRANCH  31  34
BRANCH  31  55
ATOM     55  CB  LEU A   3      23.220  43.336  12.383  0.00  0.00    +0.029 C 
BRANCH  55  56
ATOM     56  CG  LEU A   3      23.866  41.978  12.067  0.00  0.00    +0.002 C 
ATOM     57  CD2 LEU A   3      25.407  42.079  11.907  0.00  0.00    +0.000 C 
ATOM     58  CD1 LEU A   3      23.228  41.350  10.849  0.00  0.00    +0.000 C 
ENDBRANCH  55  56
ENDBRANCH  31  55
ENDBRANCH   1  31
TORSDOF 24
REMARK  Name = ../refined-set-2016/2j62/2j62_pocket.pdb
REMARK  224 active torsions:
REMARK  status: ('A' for Active; 'I' for Inactive)
REMARK    1  A    between atoms: _1  and  _3
REMARK    2  A    between atoms: _3  and  _4
REMARK    3  A    between atoms: _3  and  _6
REMARK    4  A    between atoms: _9  and  _11
REMARK    5  A    between atoms: _11  and  _12
REMARK    6  A    between atoms: _11  and  _14
REMARK    7  A    between atoms: _14  and  _15
REMARK    8  A    between atoms: _15  and  _16
REMARK    9  A    between atoms: _19  and  _21
REMARK   10  A    between atoms: _21  and  _22
REMARK   11  A    between atoms: _24  and  _26
REMARK   12  A    between atoms: _26  and  _27
REMARK   13  A    between atoms: _26  and  _29
REMARK   14  A    between atoms: _29  and  _30
REMARK   15  A    between atoms: _36  and  _38
REMARK   16  A    between atoms: _38  and  _39
REMARK   17  A    between atoms: _38  and  _41
REMARK   18  A    between atoms: _41  and  _42
REMARK   19  A    between atoms: _47  and  _48
REMARK   20  A    between atoms: _50  and  _52
REMARK   21  A    between atoms: _52  and  _53
REMARK   22  A    between atoms: _55  and  _57
REMARK   23  A    between atoms: _57  and  _58
REMARK   24  A    between atoms: _62  and  _63
REMARK   25  A    between atoms: _68  and  _70
REMARK   26  A    between atoms: _70  and  _71
REMARK   27  A    between atoms: _70  and  _73
REMARK   28  A    between atoms: _73  and  _74
REMARK   29  A    between atoms: _74  and  _75
REMARK   30  A    between atoms: _75  and  _76
REMARK   31  A    between atoms: _76  and  _77
REMARK   32  A    between atoms: _81  and  _83
REMARK   33  A    between atoms: _83  and  _84
REMARK   34  A    between atoms: _83  and  _86
REMARK   35  A    between atoms: _86  and  _87
REMARK   36  A    between atoms: _90  and  _92
REMARK   37  A    between atoms: _92  and  _93
REMARK   38  A    between atoms: _92  and  _95
REMARK   39  A    between atoms: _95  and  _96
REMARK   40  A    between atoms: _96  and  _97
REMARK   41  A    between atoms: _97  and  _98
REMARK   42  A    between atoms: _107  and  _109
REMARK   43  A    between atoms: _109  and  _110
REMARK   44  A    between atoms: _109  and  _112
REMARK   45  A    between atoms: _112  and  _113
REMARK   46  A    between atoms: _115  and  _117
REMARK   47  A    between atoms: _117  and  _118
REMARK   48  A    between atoms: _117  and  _120
REMARK   49  A    between atoms: _120  and  _121
REMARK   50  A    between atoms: _126  and  _127
REMARK   51  A    between atoms: _129  and  _131
REMARK   52  A    between atoms: _131  and  _132
REMARK   53  A    between atoms: _131  and  _134
REMARK   54  A    between atoms: _134  and  _135
REMARK   55  A    between atoms: _145  and  _147
REMARK   56  A    between atoms: _147  and  _148
REMARK   57  A    between atoms: _147  and  _150
REMARK   58  A    between atoms: _150  and  _151
REMARK   59  A    between atoms: _154  and  _156
REMARK   60  A    between atoms: _156  and  _157
REMARK   61  A    between atoms: _156  and  _159
REMARK   62  A    between atoms: _159  and  _160
REMARK   63  A    between atoms: _163  and  _165
REMARK   64  A    between atoms: _165  and  _166
REMARK   65  A    between atoms: _165  and  _168
REMARK   66  A    between atoms: _168  and  _169
REMARK   67  A    between atoms: _172  and  _174
REMARK   68  A    between atoms: _174  and  _175
REMARK   69  A    between atoms: _174  and  _177
REMARK   70  A    between atoms: _177  and  _178
REMARK   71  A    between atoms: _181  and  _183
REMARK   72  A    between atoms: _183  and  _184
REMARK   73  A    between atoms: _183  and  _186
REMARK   74  A    between atoms: _190  and  _191
REMARK   75  A    between atoms: _196  and  _198
REMARK   76  A    between atoms: _198  and  _199
REMARK   77  A    between atoms: _198  and  _201
REMARK   78  A    between atoms: _201  and  _202
REMARK   79  A    between atoms: _205  and  _207
REMARK   80  A    between atoms: _207  and  _208
REMARK   81  A    between atoms: _207  and  _210
REMARK   82  A    between atoms: _210  and  _211
REMARK   83  A    between atoms: _211  and  _212
REMARK   84  A    between atoms: _215  and  _217
REMARK   85  A    between atoms: _217  and  _218
REMARK   86  A    between atoms: _217  and  _220
REMARK   87  A    between atoms: _220  and  _221
REMARK   88  A    between atoms: _226  and  _227
REMARK   89  A    between atoms: _229  and  _231
REMARK   90  A    between atoms: _231  and  _232
REMARK   91  A    between atoms: _231  and  _234
REMARK   92  A    between atoms: _234  and  _235
REMARK   93  A    between atoms: _238  and  _240
REMARK   94  A    between atoms: _240  and  _241
REMARK   95  A    between atoms: _240  and  _243
REMARK   96  A    between atoms: _243  and  _244
REMARK   97  A    between atoms: _244  and  _245
REMARK   98  A    between atoms: _247  and  _249
REMARK   99  A    between atoms: _249  and  _250
REMARK  100  A    between atoms: _249  and  _252
REMARK  101  A    between atoms: _252  and  _253
REMARK  102  A    between atoms: _263  and  _265
REMARK  103  A    between atoms: _265  and  _266
REMARK  104  A    between atoms: _265  and  _268
REMARK  105  A    between atoms: _268  and  _269
REMARK  106  A    between atoms: _272  and  _274
REMARK  107  A    between atoms: _274  and  _275
REMARK  108  A    between atoms: _277  and  _279
REMARK  109  A    between atoms: _279  and  _280
REMARK  110  A    between atoms: _282  and  _284
REMARK  111  A    between atoms: _284  and  _285
REMARK  112  A    between atoms: _284  and  _287
REMARK  113  A    between atoms: _290  and  _292
REMARK  114  A    between atoms: _292  and  _293
REMARK  115  A    between atoms: _292  and  _295
REMARK  116  A    between atoms: _298  and  _300
REMARK  117  A    between atoms: _300  and  _301
REMARK  118  A    between atoms: _300  and  _303
REMARK  119  A    between atoms: _306  and  _308
REMARK  120  A    between atoms: _308  and  _309
REMARK  121  A    between atoms: _308  and  _311
REMARK  122  A    between atoms: _311  and  _312
REMARK  123  A    between atoms: _322  and  _324
REMARK  124  A    between atoms: _324  and  _325
REMARK  125  A    between atoms: _324  and  _327
REMARK  126  A    between atoms: _327  and  _328
REMARK  127  A    between atoms: _338  and  _340
REMARK  128  A    between atoms: _340  and  _341
REMARK  129  A    between atoms: _340  and  _343
REMARK  130  A    between atoms: _343  and  _344
REMARK  131  A    between atoms: _349  and  _351
REMARK  132  A    between atoms: _351  and  _352
REMARK  133  A    between atoms: _351  and  _354
REMARK  134  A    between atoms: _354  and  _355
REMARK  135  A    between atoms: _360  and  _361
REMARK  136  A    between atoms: _363  and  _365
REMARK  137  A    between atoms: _365  and  _366
REMARK  138  A    between atoms: _365  and  _368
REMARK  139  A    between atoms: _371  and  _373
REMARK  140  A    between atoms: _373  and  _374
REMARK  141  A    between atoms: _373  and  _376
REMARK  142  A    between atoms: _376  and  _377
REMARK  143  A    between atoms: _380  and  _382
REMARK  144  A    between atoms: _382  and  _383
REMARK  145  A    between atoms: _382  and  _385
REMARK  146  A    between atoms: _385  and  _386
REMARK  147  A    between atoms: _389  and  _391
REMARK  148  A    between atoms: _391  and  _392
REMARK  149  A    between atoms: _391  and  _394
REMARK  150  A    between atoms: _394  and  _395
REMARK  151  A    between atoms: _400  and  _401
REMARK  152  A    between atoms: _403  and  _405
REMARK  153  A    between atoms: _405  and  _406
REMARK  154  A    between atoms: _405  and  _408
REMARK  155  A    between atoms: _408  and  _409
REMARK  156  A    between atoms: _415  and  _417
REMARK  157  A    between atoms: _417  and  _418
REMARK  158  A    between atoms: _417  and  _420
REMARK  159  A    between atoms: _420  and  _421
REMARK  160  A    between atoms: _427  and  _428
REMARK  161  A    between atoms: _433  and  _435
REMARK  162  A    between atoms: _435  and  _436
REMARK  163  A    between atoms: _435  and  _438
REMARK  164  A    between atoms: _438  and  _439
REMARK  165  A    between atoms: _444  and  _446
REMARK  166  A    between atoms: _446  and  _447
REMARK  167  A    between atoms: _446  and  _449
REMARK  168  A    between atoms: _449  and  _450
REMARK  169  A    between atoms: _460  and  _462
REMARK  170  A    between atoms: _462  and  _463
REMARK  171  A    between atoms: _466  and  _468
REMARK  172  A    between atoms: _468  and  _469
REMARK  173  A    between atoms: _468  and  _471
REMARK  174  A    between atoms: _471  and  _472
REMARK  175  A    between atoms: _482  and  _484
REMARK  176  A    between atoms: _484  and  _485
REMARK  177  A    between atoms: _484  and  _487
REMARK  178  A    between atoms: _487  and  _488
REMARK  179  A    between atoms: _488  and  _489
REMARK  180  A    between atoms: _489  and  _490
REMARK  181  A    between atoms: _490  and  _491
REMARK  182  A    between atoms: _495  and  _497
REMARK  183  A    between atoms: _497  and  _498
REMARK  184  A    between atoms: _497  and  _500
REMARK  185  A    between atoms: _500  and  _501
REMARK  186  A    between atoms: _504  and  _506
REMARK  187  A    between atoms: _506  and  _507
REMARK  188  A    between atoms: _506  and  _509
REMARK  189  A    between atoms: _509  and  _510
REMARK  190  A    between atoms: _512  and  _514
REMARK  191  A    between atoms: _514  and  _515
REMARK  192  A    between atoms: _514  and  _517
REMARK  193  A    between atoms: _517  and  _518
REMARK  194  A    between atoms: _520  and  _522
REMARK  195  A    between atoms: _522  and  _523
REMARK  196  A    between atoms: _522  and  _525
REMARK  197  A    between atoms: _525  and  _526
REMARK  198  A    between atoms: _526  and  _527
REMARK  199  A    between atoms: _527  and  _528
REMARK  200  A    between atoms: _528  and  _529
REMARK  201  A    between atoms: _533  and  _535
REMARK  202  A    between atoms: _535  and  _536
REMARK  203  A    between atoms: _535  and  _538
REMARK  204  A    between atoms: _538  and  _539
REMARK  205  A    between atoms: _545  and  _547
REMARK  206  A    between atoms: _547  and  _548
REMARK  207  A    between atoms: _547  and  _550
REMARK  208  A    between atoms: _550  and  _551
REMARK  209  A    between atoms: _554  and  _556
REMARK  210  A    between atoms: _556  and  _557
REMARK  211  A    between atoms: _556  and  _559
REMARK  212  A    between atoms: _559  and  _560
REMARK  213  A    between atoms: _563  and  _565
REMARK  214  A    between atoms: _565  and  _566
REMARK  215  A    between atoms: _565  and  _568
REMARK  216  A    between atoms: _568  and  _569
REMARK  217  A    between atoms: _572  and  _574
REMARK  218  A    between atoms: _574  and  _575
REMARK  219  A    between atoms: _574  and  _577
REMARK  220  A    between atoms: _577  and  _578
REMARK  221  A    between atoms: _581  and  _583
REMARK  222  A    between atoms: _583  and  _584
REMARK  223  A    between atoms: _583  and  _586
REMARK  224  A    between atoms: _586  and  _587
REMARK                            x       y       z     vdW  Elec       q    Type
REMARK                         _______ _______ _______ _____ _____    ______ ____
ROOT
ATOM      1  O   HOH     1      28.554  50.577  25.869  0.00  0.00    +0.000 OA
ENDROOT
TORSDOF 0
REMARK  Name = ../refined-set-2016/2j62/2j62_pocket.pdb
REMARK  224 active torsions:
REMARK  status: ('A' for Active; 'I' for Inactive)
REMARK    1  A    between atoms: _1  and  _3
REMARK    2  A    between atoms: _3  and  _4
REMARK    3  A    between atoms: _3  and  _6
REMARK    4  A    between atoms: _9  and  _11
REMARK    5  A    between atoms: _11  and  _12
REMARK    6  A    between atoms: _11  and  _14
REMARK    7  A    between atoms: _14  and  _15
REMARK    8  A    between atoms: _15  and  _16
REMARK    9  A    between atoms: _19  and  _21
REMARK   10  A    between atoms: _21  and  _22
REMARK   11  A    between atoms: _24  and  _26
REMARK   12  A    between atoms: _26  and  _27
REMARK   13  A    between atoms: _26  and  _29
REMARK   14  A    between atoms: _29  and  _30
REMARK   15  A    between atoms: _36  and  _38
REMARK   16  A    between atoms: _38  and  _39
REMARK   17  A    between atoms: _38  and  _41
REMARK   18  A    between atoms: _41  and  _42
REMARK   19  A    between atoms: _47  and  _48
REMARK   20  A    between atoms: _50  and  _52
REMARK   21  A    between atoms: _52  and  _53
REMARK   22  A    between atoms: _55  and  _57
REMARK   23  A    between atoms: _57  and  _58
REMARK   24  A    between atoms: _62  and  _63
REMARK   25  A    between atoms: _68  and  _70
REMARK   26  A    between atoms: _70  and  _71
REMARK   27  A    between atoms: _70  and  _73
REMARK   28  A    between atoms: _73  and  _74
REMARK   29  A    between atoms: _74  and  _75
REMARK   30  A    between atoms: _75  and  _76
REMARK   31  A    between atoms: _76  and  _77
REMARK   32  A    between atoms: _81  and  _83
REMARK   33  A    between atoms: _83  and  _84
REMARK   34  A    between atoms: _83  and  _86
REMARK   35  A    between atoms: _86  and  _87
REMARK   36  A    between atoms: _90  and  _92
REMARK   37  A    between atoms: _92  and  _93
REMARK   38  A    between atoms: _92  and  _95
REMARK   39  A    between atoms: _95  and  _96
REMARK   40  A    between atoms: _96  and  _97
REMARK   41  A    between atoms: _97  and  _98
REMARK   42  A    between atoms: _107  and  _109
REMARK   43  A    between atoms: _109  and  _110
REMARK   44  A    between atoms: _109  and  _112
REMARK   45  A    between atoms: _112  and  _113
REMARK   46  A    between atoms: _115  and  _117
REMARK   47  A    between atoms: _117  and  _118
REMARK   48  A    between atoms: _117  and  _120
REMARK   49  A    between atoms: _120  and  _121
REMARK   50  A    between atoms: _126  and  _127
REMARK   51  A    between atoms: _129  and  _131
REMARK   52  A    between atoms: _131  and  _132
REMARK   53  A    between atoms: _131  and  _134
REMARK   54  A    between atoms: _134  and  _135
REMARK   55  A    between atoms: _145  and  _147
REMARK   56  A    between atoms: _147  and  _148
REMARK   57  A    between atoms: _147  and  _150
REMARK   58  A    between atoms: _150  and  _151
REMARK   59  A    between atoms: _154  and  _156
REMARK   60  A    between atoms: _156  and  _157
REMARK   61  A    between atoms: _156  and  _159
REMARK   62  A    between atoms: _159  and  _160
REMARK   63  A    between atoms: _163  and  _165
REMARK   64  A    between atoms: _165  and  _166
REMARK   65  A    between atoms: _165  and  _168
REMARK   66  A    between atoms: _168  and  _169
REMARK   67  A    between atoms: _172  and  _174
REMARK   68  A    between atoms: _174  and  _175
REMARK   69  A    between atoms: _174  and  _177
REMARK   70  A    between atoms: _177  and  _178
REMARK   71  A    between atoms: _181  and  _183
REMARK   72  A    between atoms: _183  and  _184
REMARK   73  A    between atoms: _183  and  _186
REMARK   74  A    between atoms: _190  and  _191
REMARK   75  A    between atoms: _196  and  _198
REMARK   76  A    between atoms: _198  and  _199
REMARK   77  A    between atoms: _198  and  _201
REMARK   78  A    between atoms: _201  and  _202
REMARK   79  A    between atoms: _205  and  _207
REMARK   80  A    between atoms: _207  and  _208
REMARK   81  A    between atoms: _207  and  _210
REMARK   82  A    between atoms: _210  and  _211
REMARK   83  A    between atoms: _211  and  _212
REMARK   84  A    between atoms: _215  and  _217
REMARK   85  A    between atoms: _217  and  _218
REMARK   86  A    between atoms: _217  and  _220
REMARK   87  A    between atoms: _220  and  _221
REMARK   88  A    between atoms: _226  and  _227
REMARK   89  A    between atoms: _229  and  _231
REMARK   90  A    between atoms: _231  and  _232
REMARK   91  A    between atoms: _231  and  _234
REMARK   92  A    between atoms: _234  and  _235
REMARK   93  A    between atoms: _238  and  _240
REMARK   94  A    between atoms: _240  and  _241
REMARK   95  A    between atoms: _240  and  _243
REMARK   96  A    between atoms: _243  and  _244
REMARK   97  A    between atoms: _244  and  _245
REMARK   98  A    between atoms: _247  and  _249
REMARK   99  A    between atoms: _249  and  _250
REMARK  100  A    between atoms: _249  and  _252
REMARK  101  A    between atoms: _252  and  _253
REMARK  102  A    between atoms: _263  and  _265
REMARK  103  A    between atoms: _265  and  _266
REMARK  104  A    between atoms: _265  and  _268
REMARK  105  A    between atoms: _268  and  _269
REMARK  106  A    between atoms: _272  and  _274
REMARK  107  A    between atoms: _274  and  _275
REMARK  108  A    between atoms: _277  and  _279
REMARK  109  A    between atoms: _279  and  _280
REMARK  110  A    between atoms: _282  and  _284
REMARK  111  A    between atoms: _284  and  _285
REMARK  112  A    between atoms: _284  and  _287
REMARK  113  A    between atoms: _290  and  _292
REMARK  114  A    between atoms: _292  and  _293
REMARK  115  A    between atoms: _292  and  _295
REMARK  116  A    between atoms: _298  and  _300
REMARK  117  A    between atoms: _300  and  _301
REMARK  118  A    between atoms: _300  and  _303
REMARK  119  A    between atoms: _306  and  _308
REMARK  120  A    between atoms: _308  and  _309
REMARK  121  A    between atoms: _308  and  _311
REMARK  122  A    between atoms: _311  and  _312
REMARK  123  A    between atoms: _322  and  _324
REMARK  124  A    between atoms: _324  and  _325
REMARK  125  A    between atoms: _324  and  _327
REMARK  126  A    between atoms: _327  and  _328
REMARK  127  A    between atoms: _338  and  _340
REMARK  128  A    between atoms: _340  and  _341
REMARK  129  A    between atoms: _340  and  _343
REMARK  130  A    between atoms: _343  and  _344
REMARK  131  A    between atoms: _349  and  _351
REMARK  132  A    between atoms: _351  and  _352
REMARK  133  A    between atoms: _351  and  _354
REMARK  134  A    between atoms: _354  and  _355
REMARK  135  A    between atoms: _360  and  _361
REMARK  136  A    between atoms: _363  and  _365
REMARK  137  A    between atoms: _365  and  _366
REMARK  138  A    between atoms: _365  and  _368
REMARK  139  A    between atoms: _371  and  _373
REMARK  140  A    between atoms: _373  and  _374
REMARK  141  A    between atoms: _373  and  _376
REMARK  142  A    between atoms: _376  and  _377
REMARK  143  A    between atoms: _380  and  _382
REMARK  144  A    between atoms: _382  and  _383
REMARK  145  A    between atoms: _382  and  _385
REMARK  146  A    between atoms: _385  and  _386
REMARK  147  A    between atoms: _389  and  _391
REMARK  148  A    between atoms: _391  and  _392
REMARK  149  A    between atoms: _391  and  _394
REMARK  150  A    between atoms: _394  and  _395
REMARK  151  A    between atoms: _400  and  _401
REMARK  152  A    between atoms: _403  and  _405
REMARK  153  A    between atoms: _405  and  _406
REMARK  154  A    between atoms: _405  and  _408
REMARK  155  A    between atoms: _408  and  _409
REMARK  156  A    between atoms: _415  and  _417
REMARK  157  A    between atoms: _417  and  _418
REMARK  158  A    between atoms: _417  and  _420
REMARK  159  A    between atoms: _420  and  _421
REMARK  160  A    between atoms: _427  and  _428
REMARK  161  A    between atoms: _433  and  _435
REMARK  162  A    between atoms: _435  and  _436
REMARK  163  A    between atoms: _435  and  _438
REMARK  164  A    between atoms: _438  and  _439
REMARK  165  A    between atoms: _444  and  _446
REMARK  166  A    between atoms: _446  and  _447
REMARK  167  A    between atoms: _446  and  _449
REMARK  168  A    between atoms: _449  and  _450
REMARK  169  A    between atoms: _460  and  _462
REMARK  170  A    between atoms: _462  and  _463
REMARK  171  A    between atoms: _466  and  _468
REMARK  172  A    between atoms: _468  and  _469
REMARK  173  A    between atoms: _468  and  _471
REMARK  174  A    between atoms: _471  and  _472
REMARK  175  A    between atoms: _482  and  _484
REMARK  176  A    between atoms: _484  and  _485
REMARK  177  A    between atoms: _484  and  _487
REMARK  178  A    between atoms: _487  and  _488
REMARK  179  A    between atoms: _488  and  _489
REMARK  180  A    between atoms: _489  and  _490
REMARK  181  A    between atoms: _490  and  _491
REMARK  182  A    between atoms: _495  and  _497
REMARK  183  A    between atoms: _497  and  _498
REMARK  184  A    between atoms: _497  and  _500
REMARK  185  A    between atoms: _500  and  _501
REMARK  186  A    between atoms: _504  and  _506
REMARK  187  A    between atoms: _506  and  _507
REMARK  188  A    between atoms: _506  and  _509
REMARK  189  A    between atoms: _509  and  _510
REMARK  190  A    between atoms: _512  and  _514
REMARK  191  A    between atoms: _514  and  _515
REMARK  192  A    between atoms: _514  and  _517
REMARK  193  A    between atoms: _517  and  _518
REMARK  194  A    between atoms: _520  and  _522
REMARK  195  A    between atoms: _522  and  _523
REMARK  196  A    between atoms: _522  and  _525
REMARK  197  A    between atoms: _525  and  _526
REMARK  198  A    between atoms: _526  and  _527
REMARK  199  A    between atoms: _527  and  _528
REMARK  200  A    between atoms: _528  and  _529
REMARK  201  A    between atoms: _533  and  _535
REMARK  202  A    between atoms: _535  and  _536
REMARK  203  A    between atoms: _535  and  _538
REMARK  204  A    between atoms: _538  and  _539
REMARK  205  A    between atoms: _545  and  _547
REMARK  206  A    between atoms: _547  and  _548
REMARK  207  A    between atoms: _547  and  _550
REMARK  208  A    between atoms: _550  and  _551
REMARK  209  A    between atoms: _554  and  _556
REMARK  210  A    between atoms: _556  and  _557
REMARK  211  A    between atoms: _556  and  _559
REMARK  212  A    between atoms: _559  and  _560
REMARK  213  A    between atoms: _563  and  _565
REMARK  214  A    between atoms: _565  and  _566
REMARK  215  A    between atoms: _565  and  _568
REMARK  216  A    between atoms: _568  and  _569
REMARK  217  A    between atoms: _572  and  _574
REMARK  218  A    between atoms: _574  and  _575
REMARK  219  A    between atoms: _574  and  _577
REMARK  220  A    between atoms: _577  and  _578
REMARK  221  A    between atoms: _581  and  _583
REMARK  222  A    between atoms: _583  and  _584
REMARK  223  A    between atoms: _583  and  _586
REMARK  224  A    between atoms: _586  and  _587
REMARK                            x       y       z     vdW  Elec       q    Type
REMARK                         _______ _______ _______ _____ _____    ______ ____
ROOT
ATOM      1  O   HOH     1      34.113  48.952  16.702  0.00  0.00    +0.000 OA
ENDROOT
TORSDOF 0
REMARK  Name = ../refined-set-2016/2j62/2j62_pocket.pdb
REMARK  224 active torsions:
REMARK  status: ('A' for Active; 'I' for Inactive)
REMARK    1  A    between atoms: _1  and  _3
REMARK    2  A    between atoms: _3  and  _4
REMARK    3  A    between atoms: _3  and  _6
REMARK    4  A    between atoms: _9  and  _11
REMARK    5  A    between atoms: _11  and  _12
REMARK    6  A    between atoms: _11  and  _14
REMARK    7  A    between atoms: _14  and  _15
REMARK    8  A    between atoms: _15  and  _16
REMARK    9  A    between atoms: _19  and  _21
REMARK   10  A    between atoms: _21  and  _22
REMARK   11  A    between atoms: _24  and  _26
REMARK   12  A    between atoms: _26  and  _27
REMARK   13  A    between atoms: _26  and  _29
REMARK   14  A    between atoms: _29  and  _30
REMARK   15  A    between atoms: _36  and  _38
REMARK   16  A    between atoms: _38  and  _39
REMARK   17  A    between atoms: _38  and  _41
REMARK   18  A    between atoms: _41  and  _42
REMARK   19  A    between atoms: _47  and  _48
REMARK   20  A    between atoms: _50  and  _52
REMARK   21  A    between atoms: _52  and  _53
REMARK   22  A    between atoms: _55  and  _57
REMARK   23  A    between atoms: _57  and  _58
REMARK   24  A    between atoms: _62  and  _63
REMARK   25  A    between atoms: _68  and  _70
REMARK   26  A    between atoms: _70  and  _71
REMARK   27  A    between atoms: _70  and  _73
REMARK   28  A    between atoms: _73  and  _74
REMARK   29  A    between atoms: _74  and  _75
REMARK   30  A    between atoms: _75  and  _76
REMARK   31  A    between atoms: _76  and  _77
REMARK   32  A    between atoms: _81  and  _83
REMARK   33  A    between atoms: _83  and  _84
REMARK   34  A    between atoms: _83  and  _86
REMARK   35  A    between atoms: _86  and  _87
REMARK   36  A    between atoms: _90  and  _92
REMARK   37  A    between atoms: _92  and  _93
REMARK   38  A    between atoms: _92  and  _95
REMARK   39  A    between atoms: _95  and  _96
REMARK   40  A    between atoms: _96  and  _97
REMARK   41  A    between atoms: _97  and  _98
REMARK   42  A    between atoms: _107  and  _109
REMARK   43  A    between atoms: _109  and  _110
REMARK   44  A    between atoms: _109  and  _112
REMARK   45  A    between atoms: _112  and  _113
REMARK   46  A    between atoms: _115  and  _117
REMARK   47  A    between atoms: _117  and  _118
REMARK   48  A    between atoms: _117  and  _120
REMARK   49  A    between atoms: _120  and  _121
REMARK   50  A    between atoms: _126  and  _127
REMARK   51  A    between atoms: _129  and  _131
REMARK   52  A    between atoms: _131  and  _132
REMARK   53  A    between atoms: _131  and  _134
REMARK   54  A    between atoms: _134  and  _135
REMARK   55  A    between atoms: _145  and  _147
REMARK   56  A    between atoms: _147  and  _148
REMARK   57  A    between atoms: _147  and  _150
REMARK   58  A    between atoms: _150  and  _151
REMARK   59  A    between atoms: _154  and  _156
REMARK   60  A    between atoms: _156  and  _157
REMARK   61  A    between atoms: _156  and  _159
REMARK   62  A    between atoms: _159  and  _160
REMARK   63  A    between atoms: _163  and  _165
REMARK   64  A    between atoms: _165  and  _166
REMARK   65  A    between atoms: _165  and  _168
REMARK   66  A    between atoms: _168  and  _169
REMARK   67  A    between atoms: _172  and  _174
REMARK   68  A    between atoms: _174  and  _175
REMARK   69  A    between atoms: _174  and  _177
REMARK   70  A    between atoms: _177  and  _178
REMARK   71  A    between atoms: _181  and  _183
REMARK   72  A    between atoms: _183  and  _184
REMARK   73  A    between atoms: _183  and  _186
REMARK   74  A    between atoms: _190  and  _191
REMARK   75  A    between atoms: _196  and  _198
REMARK   76  A    between atoms: _198  and  _199
REMARK   77  A    between atoms: _198  and  _201
REMARK   78  A    between atoms: _201  and  _202
REMARK   79  A    between atoms: _205  and  _207
REMARK   80  A    between atoms: _207  and  _208
REMARK   81  A    between atoms: _207  and  _210
REMARK   82  A    between atoms: _210  and  _211
REMARK   83  A    between atoms: _211  and  _212
REMARK   84  A    between atoms: _215  and  _217
REMARK   85  A    between atoms: _217  and  _218
REMARK   86  A    between atoms: _217  and  _220
REMARK   87  A    between atoms: _220  and  _221
REMARK   88  A    between atoms: _226  and  _227
REMARK   89  A    between atoms: _229  and  _231
REMARK   90  A    between atoms: _231  and  _232
REMARK   91  A    between atoms: _231  and  _234
REMARK   92  A    between atoms: _234  and  _235
REMARK   93  A    between atoms: _238  and  _240
REMARK   94  A    between atoms: _240  and  _241
REMARK   95  A    between atoms: _240  and  _243
REMARK   96  A    between atoms: _243  and  _244
REMARK   97  A    between atoms: _244  and  _245
REMARK   98  A    between atoms: _247  and  _249
REMARK   99  A    between atoms: _249  and  _250
REMARK  100  A    between atoms: _249  and  _252
REMARK  101  A    between atoms: _252  and  _253
REMARK  102  A    between atoms: _263  and  _265
REMARK  103  A    between atoms: _265  and  _266
REMARK  104  A    between atoms: _265  and  _268
REMARK  105  A    between atoms: _268  and  _269
REMARK  106  A    between atoms: _272  and  _274
REMARK  107  A    between atoms: _274  and  _275
REMARK  108  A    between atoms: _277  and  _279
REMARK  109  A    between atoms: _279  and  _280
REMARK  110  A    between atoms: _282  and  _284
REMARK  111  A    between atoms: _284  and  _285
REMARK  112  A    between atoms: _284  and  _287
REMARK  113  A    between atoms: _290  and  _292
REMARK  114  A    between atoms: _292  and  _293
REMARK  115  A    between atoms: _292  and  _295
REMARK  116  A    between atoms: _298  and  _300
REMARK  117  A    between atoms: _300  and  _301
REMARK  118  A    between atoms: _300  and  _303
REMARK  119  A    between atoms: _306  and  _308
REMARK  120  A    between atoms: _308  and  _309
REMARK  121  A    between atoms: _308  and  _311
REMARK  122  A    between atoms: _311  and  _312
REMARK  123  A    between atoms: _322  and  _324
REMARK  124  A    between atoms: _324  and  _325
REMARK  125  A    between atoms: _324  and  _327
REMARK  126  A    between atoms: _327  and  _328
REMARK  127  A    between atoms: _338  and  _340
REMARK  128  A    between atoms: _340  and  _341
REMARK  129  A    between atoms: _340  and  _343
REMARK  130  A    between atoms: _343  and  _344
REMARK  131  A    between atoms: _349  and  _351
REMARK  132  A    between atoms: _351  and  _352
REMARK  133  A    between atoms: _351  and  _354
REMARK  134  A    between atoms: _354  and  _355
REMARK  135  A    between atoms: _360  and  _361
REMARK  136  A    between atoms: _363  and  _365
REMARK  137  A    between atoms: _365  and  _366
REMARK  138  A    between atoms: _365  and  _368
REMARK  139  A    between atoms: _371  and  _373
REMARK  140  A    between atoms: _373  and  _374
REMARK  141  A    between atoms: _373  and  _376
REMARK  142  A    between atoms: _376  and  _377
REMARK  143  A    between atoms: _380  and  _382
REMARK  144  A    between atoms: _382  and  _383
REMARK  145  A    between atoms: _382  and  _385
REMARK  146  A    between atoms: _385  and  _386
REMARK  147  A    between atoms: _389  and  _391
REMARK  148  A    between atoms: _391  and  _392
REMARK  149  A    between atoms: _391  and  _394
REMARK  150  A    between atoms: _394  and  _395
REMARK  151  A    between atoms: _400  and  _401
REMARK  152  A    between atoms: _403  and  _405
REMARK  153  A    between atoms: _405  and  _406
REMARK  154  A    between atoms: _405  and  _408
REMARK  155  A    between atoms: _408  and  _409
REMARK  156  A    between atoms: _415  and  _417
REMARK  157  A    between atoms: _417  and  _418
REMARK  158  A    between atoms: _417  and  _420
REMARK  159  A    between atoms: _420  and  _421
REMARK  160  A    between atoms: _427  and  _428
REMARK  161  A    between atoms: _433  and  _435
REMARK  162  A    between atoms: _435  and  _436
REMARK  163  A    between atoms: _435  and  _438
REMARK  164  A    between atoms: _438  and  _439
REMARK  165  A    between atoms: _444  and  _446
REMARK  166  A    between atoms: _446  and  _447
REMARK  167  A    between atoms: _446  and  _449
REMARK  168  A    between atoms: _449  and  _450
REMARK  169  A    between atoms: _460  and  _462
REMARK  170  A    between atoms: _462  and  _463
REMARK  171  A    between atoms: _466  and  _468
REMARK  172  A    between atoms: _468  and  _469
REMARK  173  A    between atoms: _468  and  _471
REMARK  174  A    between atoms: _471  and  _472
REMARK  175  A    between atoms: _482  and  _484
REMARK  176  A    between atoms: _484  and  _485
REMARK  177  A    between atoms: _484  and  _487
REMARK  178  A    between atoms: _487  and  _488
REMARK  179  A    between atoms: _488  and  _489
REMARK  180  A    between atoms: _489  and  _490
REMARK  181  A    between atoms: _490  and  _491
REMARK  182  A    between atoms: _495  and  _497
REMARK  183  A    between atoms: _497  and  _498
REMARK  184  A    between atoms: _497  and  _500
REMARK  185  A    between atoms: _500  and  _501
REMARK  186  A    between atoms: _504  and  _506
REMARK  187  A    between atoms: _506  and  _507
REMARK  188  A    between atoms: _506  and  _509
REMARK  189  A    between atoms: _509  and  _510
REMARK  190  A    between atoms: _512  and  _514
REMARK  191  A    between atoms: _514  and  _515
REMARK  192  A    between atoms: _514  and  _517
REMARK  193  A    between atoms: _517  and  _518
REMARK  194  A    between atoms: _520  and  _522
REMARK  195  A    between atoms: _522  and  _523
REMARK  196  A    between atoms: _522  and  _525
REMARK  197  A    between atoms: _525  and  _526
REMARK  198  A    between atoms: _526  and  _527
REMARK  199  A    between atoms: _527  and  _528
REMARK  200  A    between atoms: _528  and  _529
REMARK  201  A    between atoms: _533  and  _535
REMARK  202  A    between atoms: _535  and  _536
REMARK  203  A    between atoms: _535  and  _538
REMARK  204  A    between atoms: _538  and  _539
REMARK  205  A    between atoms: _545  and  _547
REMARK  206  A    between atoms: _547  and  _548
REMARK  207  A    between atoms: _547  and  _550
REMARK  208  A    between atoms: _550  and  _551
REMARK  209  A    between atoms: _554  and  _556
REMARK  210  A    between atoms: _556  and  _557
REMARK  211  A    between atoms: _556  and  _559
REMARK  212  A    between atoms: _559  and  _560
REMARK  213  A    between atoms: _563  and  _565
REMARK  214  A    between atoms: _565  and  _566
REMARK  215  A    between atoms: _565  and  _568
REMARK  216  A    between atoms: _568  and  _569
REMARK  217  A    between atoms: _572  and  _574
REMARK  218  A    between atoms: _574  and  _575
REMARK  219  A    between atoms: _574  and  _577
REMARK  220  A    between atoms: _577  and  _578
REMARK  221  A    between atoms: _581  and  _583
REMARK  222  A    between atoms: _583  and  _584
REMARK  223  A    between atoms: _583  and  _586
REMARK  224  A    between atoms: _586  and  _587
REMARK                            x       y       z     vdW  Elec       q    Type
REMARK                         _______ _______ _______ _____ _____    ______ ____
ROOT
ATOM      1  O   HOH     1      37.005  48.703  18.303  0.00  0.00    +0.000 OA
ENDROOT
TORSDOF 0
REMARK  Name = ../refined-set-2016/2j62/2j62_pocket.pdb
REMARK  224 active torsions:
REMARK  status: ('A' for Active; 'I' for Inactive)
REMARK    1  A    between atoms: _1  and  _3
REMARK    2  A    between atoms: _3  and  _4
REMARK    3  A    between atoms: _3  and  _6
REMARK    4  A    between atoms: _9  and  _11
REMARK    5  A    between atoms: _11  and  _12
REMARK    6  A    between atoms: _11  and  _14
REMARK    7  A    between atoms: _14  and  _15
REMARK    8  A    between atoms: _15  and  _16
REMARK    9  A    between atoms: _19  and  _21
REMARK   10  A    between atoms: _21  and  _22
REMARK   11  A    between atoms: _24  and  _26
REMARK   12  A    between atoms: _26  and  _27
REMARK   13  A    between atoms: _26  and  _29
REMARK   14  A    between atoms: _29  and  _30
REMARK   15  A    between atoms: _36  and  _38
REMARK   16  A    between atoms: _38  and  _39
REMARK   17  A    between atoms: _38  and  _41
REMARK   18  A    between atoms: _41  and  _42
REMARK   19  A    between atoms: _47  and  _48
REMARK   20  A    between atoms: _50  and  _52
REMARK   21  A    between atoms: _52  and  _53
REMARK   22  A    between atoms: _55  and  _57
REMARK   23  A    between atoms: _57  and  _58
REMARK   24  A    between atoms: _62  and  _63
REMARK   25  A    between atoms: _68  and  _70
REMARK   26  A    between atoms: _70  and  _71
REMARK   27  A    between atoms: _70  and  _73
REMARK   28  A    between atoms: _73  and  _74
REMARK   29  A    between atoms: _74  and  _75
REMARK   30  A    between atoms: _75  and  _76
REMARK   31  A    between atoms: _76  and  _77
REMARK   32  A    between atoms: _81  and  _83
REMARK   33  A    between atoms: _83  and  _84
REMARK   34  A    between atoms: _83  and  _86
REMARK   35  A    between atoms: _86  and  _87
REMARK   36  A    between atoms: _90  and  _92
REMARK   37  A    between atoms: _92  and  _93
REMARK   38  A    between atoms: _92  and  _95
REMARK   39  A    between atoms: _95  and  _96
REMARK   40  A    between atoms: _96  and  _97
REMARK   41  A    between atoms: _97  and  _98
REMARK   42  A    between atoms: _107  and  _109
REMARK   43  A    between atoms: _109  and  _110
REMARK   44  A    between atoms: _109  and  _112
REMARK   45  A    between atoms: _112  and  _113
REMARK   46  A    between atoms: _115  and  _117
REMARK   47  A    between atoms: _117  and  _118
REMARK   48  A    between atoms: _117  and  _120
REMARK   49  A    between atoms: _120  and  _121
REMARK   50  A    between atoms: _126  and  _127
REMARK   51  A    between atoms: _129  and  _131
REMARK   52  A    between atoms: _131  and  _132
REMARK   53  A    between atoms: _131  and  _134
REMARK   54  A    between atoms: _134  and  _135
REMARK   55  A    between atoms: _145  and  _147
REMARK   56  A    between atoms: _147  and  _148
REMARK   57  A    between atoms: _147  and  _150
REMARK   58  A    between atoms: _150  and  _151
REMARK   59  A    between atoms: _154  and  _156
REMARK   60  A    between atoms: _156  and  _157
REMARK   61  A    between atoms: _156  and  _159
REMARK   62  A    between atoms: _159  and  _160
REMARK   63  A    between atoms: _163  and  _165
REMARK   64  A    between atoms: _165  and  _166
REMARK   65  A    between atoms: _165  and  _168
REMARK   66  A    between atoms: _168  and  _169
REMARK   67  A    between atoms: _172  and  _174
REMARK   68  A    between atoms: _174  and  _175
REMARK   69  A    between atoms: _174  and  _177
REMARK   70  A    between atoms: _177  and  _178
REMARK   71  A    between atoms: _181  and  _183
REMARK   72  A    between atoms: _183  and  _184
REMARK   73  A    between atoms: _183  and  _186
REMARK   74  A    between atoms: _190  and  _191
REMARK   75  A    between atoms: _196  and  _198
REMARK   76  A    between atoms: _198  and  _199
REMARK   77  A    between atoms: _198  and  _201
REMARK   78  A    between atoms: _201  and  _202
REMARK   79  A    between atoms: _205  and  _207
REMARK   80  A    between atoms: _207  and  _208
REMARK   81  A    between atoms: _207  and  _210
REMARK   82  A    between atoms: _210  and  _211
REMARK   83  A    between atoms: _211  and  _212
REMARK   84  A    between atoms: _215  and  _217
REMARK   85  A    between atoms: _217  and  _218
REMARK   86  A    between atoms: _217  and  _220
REMARK   87  A    between atoms: _220  and  _221
REMARK   88  A    between atoms: _226  and  _227
REMARK   89  A    between atoms: _229  and  _231
REMARK   90  A    between atoms: _231  and  _232
REMARK   91  A    between atoms: _231  and  _234
REMARK   92  A    between atoms: _234  and  _235
REMARK   93  A    between atoms: _238  and  _240
REMARK   94  A    between atoms: _240  and  _241
REMARK   95  A    between atoms: _240  and  _243
REMARK   96  A    between atoms: _243  and  _244
REMARK   97  A    between atoms: _244  and  _245
REMARK   98  A    between atoms: _247  and  _249
REMARK   99  A    between atoms: _249  and  _250
REMARK  100  A    between atoms: _249  and  _252
REMARK  101  A    between atoms: _252  and  _253
REMARK  102  A    between atoms: _263  and  _265
REMARK  103  A    between atoms: _265  and  _266
REMARK  104  A    between atoms: _265  and  _268
REMARK  105  A    between atoms: _268  and  _269
REMARK  106  A    between atoms: _272  and  _274
REMARK  107  A    between atoms: _274  and  _275
REMARK  108  A    between atoms: _277  and  _279
REMARK  109  A    between atoms: _279  and  _280
REMARK  110  A    between atoms: _282  and  _284
REMARK  111  A    between atoms: _284  and  _285
REMARK  112  A    between atoms: _284  and  _287
REMARK  113  A    between atoms: _290  and  _292
REMARK  114  A    between atoms: _292  and  _293
REMARK  115  A    between atoms: _292  and  _295
REMARK  116  A    between atoms: _298  and  _300
REMARK  117  A    between atoms: _300  and  _301
REMARK  118  A    between atoms: _300  and  _303
REMARK  119  A    between atoms: _306  and  _308
REMARK  120  A    between atoms: _308  and  _309
REMARK  121  A    between atoms: _308  and  _311
REMARK  122  A    between atoms: _311  and  _312
REMARK  123  A    between atoms: _322  and  _324
REMARK  124  A    between atoms: _324  and  _325
REMARK  125  A    between atoms: _324  and  _327
REMARK  126  A    between atoms: _327  and  _328
REMARK  127  A    between atoms: _338  and  _340
REMARK  128  A    between atoms: _340  and  _341
REMARK  129  A    between atoms: _340  and  _343
REMARK  130  A    between atoms: _343  and  _344
REMARK  131  A    between atoms: _349  and  _351
REMARK  132  A    between atoms: _351  and  _352
REMARK  133  A    between atoms: _351  and  _354
REMARK  134  A    between atoms: _354  and  _355
REMARK  135  A    between atoms: _360  and  _361
REMARK  136  A    between atoms: _363  and  _365
REMARK  137  A    between atoms: _365  and  _366
REMARK  138  A    between atoms: _365  and  _368
REMARK  139  A    between atoms: _371  and  _373
REMARK  140  A    between atoms: _373  and  _374
REMARK  141  A    between atoms: _373  and  _376
REMARK  142  A    between atoms: _376  and  _377
REMARK  143  A    between atoms: _380  and  _382
REMARK  144  A    between atoms: _382  and  _383
REMARK  145  A    between atoms: _382  and  _385
REMARK  146  A    between atoms: _385  and  _386
REMARK  147  A    between atoms: _389  and  _391
REMARK  148  A    between atoms: _391  and  _392
REMARK  149  A    between atoms: _391  and  _394
REMARK  150  A    between atoms: _394  and  _395
REMARK  151  A    between atoms: _400  and  _401
REMARK  152  A    between atoms: _403  and  _405
REMARK  153  A    between atoms: _405  and  _406
REMARK  154  A    between atoms: _405  and  _408
REMARK  155  A    between atoms: _408  and  _409
REMARK  156  A    between atoms: _415  and  _417
REMARK  157  A    between atoms: _417  and  _418
REMARK  158  A    between atoms: _417  and  _420
REMARK  159  A    between atoms: _420  and  _421
REMARK  160  A    between atoms: _427  and  _428
REMARK  161  A    between atoms: _433  and  _435
REMARK  162  A    between atoms: _435  and  _436
REMARK  163  A    between atoms: _435  and  _438
REMARK  164  A    between atoms: _438  and  _439
REMARK  165  A    between atoms: _444  and  _446
REMARK  166  A    between atoms: _446  and  _447
REMARK  167  A    between atoms: _446  and  _449
REMARK  168  A    between atoms: _449  and  _450
REMARK  169  A    between atoms: _460  and  _462
REMARK  170  A    between atoms: _462  and  _463
REMARK  171  A    between atoms: _466  and  _468
REMARK  172  A    between atoms: _468  and  _469
REMARK  173  A    between atoms: _468  and  _471
REMARK  174  A    between atoms: _471  and  _472
REMARK  175  A    between atoms: _482  and  _484
REMARK  176  A    between atoms: _484  and  _485
REMARK  177  A    between atoms: _484  and  _487
REMARK  178  A    between atoms: _487  and  _488
REMARK  179  A    between atoms: _488  and  _489
REMARK  180  A    between atoms: _489  and  _490
REMARK  181  A    between atoms: _490  and  _491
REMARK  182  A    between atoms: _495  and  _497
REMARK  183  A    between atoms: _497  and  _498
REMARK  184  A    between atoms: _497  and  _500
REMARK  185  A    between atoms: _500  and  _501
REMARK  186  A    between atoms: _504  and  _506
REMARK  187  A    between atoms: _506  and  _507
REMARK  188  A    between atoms: _506  and  _509
REMARK  189  A    between atoms: _509  and  _510
REMARK  190  A    between atoms: _512  and  _514
REMARK  191  A    between atoms: _514  and  _515
REMARK  192  A    between atoms: _514  and  _517
REMARK  193  A    between atoms: _517  and  _518
REMARK  194  A    between atoms: _520  and  _522
REMARK  195  A    between atoms: _522  and  _523
REMARK  196  A    between atoms: _522  and  _525
REMARK  197  A    between atoms: _525  and  _526
REMARK  198  A    between atoms: _526  and  _527
REMARK  199  A    between atoms: _527  and  _528
REMARK  200  A    between atoms: _528  and  _529
REMARK  201  A    between atoms: _533  and  _535
REMARK  202  A    between atoms: _535  and  _536
REMARK  203  A    between atoms: _535  and  _538
REMARK  204  A    between atoms: _538  and  _539
REMARK  205  A    between atoms: _545  and  _547
REMARK  206  A    between atoms: _547  and  _548
REMARK  207  A    between atoms: _547  and  _550
REMARK  208  A    between atoms: _550  and  _551
REMARK  209  A    between atoms: _554  and  _556
REMARK  210  A    between atoms: _556  and  _557
REMARK  211  A    between atoms: _556  and  _559
REMARK  212  A    between atoms: _559  and  _560
REMARK  213  A    between atoms: _563  and  _565
REMARK  214  A    between atoms: _565  and  _566
REMARK  215  A    between atoms: _565  and  _568
REMARK  216  A    between atoms: _568  and  _569
REMARK  217  A    between atoms: _572  and  _574
REMARK  218  A    between atoms: _574  and  _575
REMARK  219  A    between atoms: _574  and  _577
REMARK  220  A    between atoms: _577  and  _578
REMARK  221  A    between atoms: _581  and  _583
REMARK  222  A    between atoms: _583  and  _584
REMARK  223  A    between atoms: _583  and  _586
REMARK  224  A    between atoms: _586  and  _587
REMARK                            x       y       z     vdW  Elec       q    Type
REMARK                         _______ _______ _______ _____ _____    ______ ____
ROOT
ATOM      1  O   HOH     1      36.765  48.259  20.930  0.00  0.00    +0.000 OA
ENDROOT
TORSDOF 0
REMARK  Name = ../refined-set-2016/2j62/2j62_pocket.pdb
REMARK  224 active torsions:
REMARK  status: ('A' for Active; 'I' for Inactive)
REMARK    1  A    between atoms: _1  and  _3
REMARK    2  A    between atoms: _3  and  _4
REMARK    3  A    between atoms: _3  and  _6
REMARK    4  A    between atoms: _9  and  _11
REMARK    5  A    between atoms: _11  and  _12
REMARK    6  A    between atoms: _11  and  _14
REMARK    7  A    between atoms: _14  and  _15
REMARK    8  A    between atoms: _15  and  _16
REMARK    9  A    between atoms: _19  and  _21
REMARK   10  A    between atoms: _21  and  _22
REMARK   11  A    between atoms: _24  and  _26
REMARK   12  A    between atoms: _26  and  _27
REMARK   13  A    between atoms: _26  and  _29
REMARK   14  A    between atoms: _29  and  _30
REMARK   15  A    between atoms: _36  and  _38
REMARK   16  A    between atoms: _38  and  _39
REMARK   17  A    between atoms: _38  and  _41
REMARK   18  A    between atoms: _41  and  _42
REMARK   19  A    between atoms: _47  and  _48
REMARK   20  A    between atoms: _50  and  _52
REMARK   21  A    between atoms: _52  and  _53
REMARK   22  A    between atoms: _55  and  _57
REMARK   23  A    between atoms: _57  and  _58
REMARK   24  A    between atoms: _62  and  _63
REMARK   25  A    between atoms: _68  and  _70
REMARK   26  A    between atoms: _70  and  _71
REMARK   27  A    between atoms: _70  and  _73
REMARK   28  A    between atoms: _73  and  _74
REMARK   29  A    between atoms: _74  and  _75
REMARK   30  A    between atoms: _75  and  _76
REMARK   31  A    between atoms: _76  and  _77
REMARK   32  A    between atoms: _81  and  _83
REMARK   33  A    between atoms: _83  and  _84
REMARK   34  A    between atoms: _83  and  _86
REMARK   35  A    between atoms: _86  and  _87
REMARK   36  A    between atoms: _90  and  _92
REMARK   37  A    between atoms: _92  and  _93
REMARK   38  A    between atoms: _92  and  _95
REMARK   39  A    between atoms: _95  and  _96
REMARK   40  A    between atoms: _96  and  _97
REMARK   41  A    between atoms: _97  and  _98
REMARK   42  A    between atoms: _107  and  _109
REMARK   43  A    between atoms: _109  and  _110
REMARK   44  A    between atoms: _109  and  _112
REMARK   45  A    between atoms: _112  and  _113
REMARK   46  A    between atoms: _115  and  _117
REMARK   47  A    between atoms: _117  and  _118
REMARK   48  A    between atoms: _117  and  _120
REMARK   49  A    between atoms: _120  and  _121
REMARK   50  A    between atoms: _126  and  _127
REMARK   51  A    between atoms: _129  and  _131
REMARK   52  A    between atoms: _131  and  _132
REMARK   53  A    between atoms: _131  and  _134
REMARK   54  A    between atoms: _134  and  _135
REMARK   55  A    between atoms: _145  and  _147
REMARK   56  A    between atoms: _147  and  _148
REMARK   57  A    between atoms: _147  and  _150
REMARK   58  A    between atoms: _150  and  _151
REMARK   59  A    between atoms: _154  and  _156
REMARK   60  A    between atoms: _156  and  _157
REMARK   61  A    between atoms: _156  and  _159
REMARK   62  A    between atoms: _159  and  _160
REMARK   63  A    between atoms: _163  and  _165
REMARK   64  A    between atoms: _165  and  _166
REMARK   65  A    between atoms: _165  and  _168
REMARK   66  A    between atoms: _168  and  _169
REMARK   67  A    between atoms: _172  and  _174
REMARK   68  A    between atoms: _174  and  _175
REMARK   69  A    between atoms: _174  and  _177
REMARK   70  A    between atoms: _177  and  _178
REMARK   71  A    between atoms: _181  and  _183
REMARK   72  A    between atoms: _183  and  _184
REMARK   73  A    between atoms: _183  and  _186
REMARK   74  A    between atoms: _190  and  _191
REMARK   75  A    between atoms: _196  and  _198
REMARK   76  A    between atoms: _198  and  _199
REMARK   77  A    between atoms: _198  and  _201
REMARK   78  A    between atoms: _201  and  _202
REMARK   79  A    between atoms: _205  and  _207
REMARK   80  A    between atoms: _207  and  _208
REMARK   81  A    between atoms: _207  and  _210
REMARK   82  A    between atoms: _210  and  _211
REMARK   83  A    between atoms: _211  and  _212
REMARK   84  A    between atoms: _215  and  _217
REMARK   85  A    between atoms: _217  and  _218
REMARK   86  A    between atoms: _217  and  _220
REMARK   87  A    between atoms: _220  and  _221
REMARK   88  A    between atoms: _226  and  _227
REMARK   89  A    between atoms: _229  and  _231
REMARK   90  A    between atoms: _231  and  _232
REMARK   91  A    between atoms: _231  and  _234
REMARK   92  A    between atoms: _234  and  _235
REMARK   93  A    between atoms: _238  and  _240
REMARK   94  A    between atoms: _240  and  _241
REMARK   95  A    between atoms: _240  and  _243
REMARK   96  A    between atoms: _243  and  _244
REMARK   97  A    between atoms: _244  and  _245
REMARK   98  A    between atoms: _247  and  _249
REMARK   99  A    between atoms: _249  and  _250
REMARK  100  A    between atoms: _249  and  _252
REMARK  101  A    between atoms: _252  and  _253
REMARK  102  A    between atoms: _263  and  _265
REMARK  103  A    between atoms: _265  and  _266
REMARK  104  A    between atoms: _265  and  _268
REMARK  105  A    between atoms: _268  and  _269
REMARK  106  A    between atoms: _272  and  _274
REMARK  107  A    between atoms: _274  and  _275
REMARK  108  A    between atoms: _277  and  _279
REMARK  109  A    between atoms: _279  and  _280
REMARK  110  A    between atoms: _282  and  _284
REMARK  111  A    between atoms: _284  and  _285
REMARK  112  A    between atoms: _284  and  _287
REMARK  113  A    between atoms: _290  and  _292
REMARK  114  A    between atoms: _292  and  _293
REMARK  115  A    between atoms: _292  and  _295
REMARK  116  A    between atoms: _298  and  _300
REMARK  117  A    between atoms: _300  and  _301
REMARK  118  A    between atoms: _300  and  _303
REMARK  119  A    between atoms: _306  and  _308
REMARK  120  A    between atoms: _308  and  _309
REMARK  121  A    between atoms: _308  and  _311
REMARK  122  A    between atoms: _311  and  _312
REMARK  123  A    between atoms: _322  and  _324
REMARK  124  A    between atoms: _324  and  _325
REMARK  125  A    between atoms: _324  and  _327
REMARK  126  A    between atoms: _327  and  _328
REMARK  127  A    between atoms: _338  and  _340
REMARK  128  A    between atoms: _340  and  _341
REMARK  129  A    between atoms: _340  and  _343
REMARK  130  A    between atoms: _343  and  _344
REMARK  131  A    between atoms: _349  and  _351
REMARK  132  A    between atoms: _351  and  _352
REMARK  133  A    between atoms: _351  and  _354
REMARK  134  A    between atoms: _354  and  _355
REMARK  135  A    between atoms: _360  and  _361
REMARK  136  A    between atoms: _363  and  _365
REMARK  137  A    between atoms: _365  and  _366
REMARK  138  A    between atoms: _365  and  _368
REMARK  139  A    between atoms: _371  and  _373
REMARK  140  A    between atoms: _373  and  _374
REMARK  141  A    between atoms: _373  and  _376
REMARK  142  A    between atoms: _376  and  _377
REMARK  143  A    between atoms: _380  and  _382
REMARK  144  A    between atoms: _382  and  _383
REMARK  145  A    between atoms: _382  and  _385
REMARK  146  A    between atoms: _385  and  _386
REMARK  147  A    between atoms: _389  and  _391
REMARK  148  A    between atoms: _391  and  _392
REMARK  149  A    between atoms: _391  and  _394
REMARK  150  A    between atoms: _394  and  _395
REMARK  151  A    between atoms: _400  and  _401
REMARK  152  A    between atoms: _403  and  _405
REMARK  153  A    between atoms: _405  and  _406
REMARK  154  A    between atoms: _405  and  _408
REMARK  155  A    between atoms: _408  and  _409
REMARK  156  A    between atoms: _415  and  _417
REMARK  157  A    between atoms: _417  and  _418
REMARK  158  A    between atoms: _417  and  _420
REMARK  159  A    between atoms: _420  and  _421
REMARK  160  A    between atoms: _427  and  _428
REMARK  161  A    between atoms: _433  and  _435
REMARK  162  A    between atoms: _435  and  _436
REMARK  163  A    between atoms: _435  and  _438
REMARK  164  A    between atoms: _438  and  _439
REMARK  165  A    between atoms: _444  and  _446
REMARK  166  A    between atoms: _446  and  _447
REMARK  167  A    between atoms: _446  and  _449
REMARK  168  A    between atoms: _449  and  _450
REMARK  169  A    between atoms: _460  and  _462
REMARK  170  A    between atoms: _462  and  _463
REMARK  171  A    between atoms: _466  and  _468
REMARK  172  A    between atoms: _468  and  _469
REMARK  173  A    between atoms: _468  and  _471
REMARK  174  A    between atoms: _471  and  _472
REMARK  175  A    between atoms: _482  and  _484
REMARK  176  A    between atoms: _484  and  _485
REMARK  177  A    between atoms: _484  and  _487
REMARK  178  A    between atoms: _487  and  _488
REMARK  179  A    between atoms: _488  and  _489
REMARK  180  A    between atoms: _489  and  _490
REMARK  181  A    between atoms: _490  and  _491
REMARK  182  A    between atoms: _495  and  _497
REMARK  183  A    between atoms: _497  and  _498
REMARK  184  A    between atoms: _497  and  _500
REMARK  185  A    between atoms: _500  and  _501
REMARK  186  A    between atoms: _504  and  _506
REMARK  187  A    between atoms: _506  and  _507
REMARK  188  A    between atoms: _506  and  _509
REMARK  189  A    between atoms: _509  and  _510
REMARK  190  A    between atoms: _512  and  _514
REMARK  191  A    between atoms: _514  and  _515
REMARK  192  A    between atoms: _514  and  _517
REMARK  193  A    between atoms: _517  and  _518
REMARK  194  A    between atoms: _520  and  _522
REMARK  195  A    between atoms: _522  and  _523
REMARK  196  A    between atoms: _522  and  _525
REMARK  197  A    between atoms: _525  and  _526
REMARK  198  A    between atoms: _526  and  _527
REMARK  199  A    between atoms: _527  and  _528
REMARK  200  A    between atoms: _528  and  _529
REMARK  201  A    between atoms: _533  and  _535
REMARK  202  A    between atoms: _535  and  _536
REMARK  203  A    between atoms: _535  and  _538
REMARK  204  A    between atoms: _538  and  _539
REMARK  205  A    between atoms: _545  and  _547
REMARK  206  A    between atoms: _547  and  _548
REMARK  207  A    between atoms: _547  and  _550
REMARK  208  A    between atoms: _550  and  _551
REMARK  209  A    between atoms: _554  and  _556
REMARK  210  A    between atoms: _556  and  _557
REMARK  211  A    between atoms: _556  and  _559
REMARK  212  A    between atoms: _559  and  _560
REMARK  213  A    between atoms: _563  and  _565
REMARK  214  A    between atoms: _565  and  _566
REMARK  215  A    between atoms: _565  and  _568
REMARK  216  A    between atoms: _568  and  _569
REMARK  217  A    between atoms: _572  and  _574
REMARK  218  A    between atoms: _574  and  _575
REMARK  219  A    between atoms: _574  and  _577
REMARK  220  A    between atoms: _577  and  _578
REMARK  221  A    between atoms: _581  and  _583
REMARK  222  A    between atoms: _583  and  _584
REMARK  223  A    between atoms: _583  and  _586
REMARK  224  A    between atoms: _586  and  _587
REMARK                            x       y       z     vdW  Elec       q    Type
REMARK                         _______ _______ _______ _____ _____    ______ ____
ROOT
ATOM      1  O   HOH     1      36.418  42.778  12.708  0.00  0.00    +0.000 OA
ENDROOT
TORSDOF 0
REMARK  Name = ../refined-set-2016/2j62/2j62_pocket.pdb
REMARK  224 active torsions:
REMARK  status: ('A' for Active; 'I' for Inactive)
REMARK    1  A    between atoms: _1  and  _3
REMARK    2  A    between atoms: _3  and  _4
REMARK    3  A    between atoms: _3  and  _6
REMARK    4  A    between atoms: _9  and  _11
REMARK    5  A    between atoms: _11  and  _12
REMARK    6  A    between atoms: _11  and  _14
REMARK    7  A    between atoms: _14  and  _15
REMARK    8  A    between atoms: _15  and  _16
REMARK    9  A    between atoms: _19  and  _21
REMARK   10  A    between atoms: _21  and  _22
REMARK   11  A    between atoms: _24  and  _26
REMARK   12  A    between atoms: _26  and  _27
REMARK   13  A    between atoms: _26  and  _29
REMARK   14  A    between atoms: _29  and  _30
REMARK   15  A    between atoms: _36  and  _38
REMARK   16  A    between atoms: _38  and  _39
REMARK   17  A    between atoms: _38  and  _41
REMARK   18  A    between atoms: _41  and  _42
REMARK   19  A    between atoms: _47  and  _48
REMARK   20  A    between atoms: _50  and  _52
REMARK   21  A    between atoms: _52  and  _53
REMARK   22  A    between atoms: _55  and  _57
REMARK   23  A    between atoms: _57  and  _58
REMARK   24  A    between atoms: _62  and  _63
REMARK   25  A    between atoms: _68  and  _70
REMARK   26  A    between atoms: _70  and  _71
REMARK   27  A    between atoms: _70  and  _73
REMARK   28  A    between atoms: _73  and  _74
REMARK   29  A    between atoms: _74  and  _75
REMARK   30  A    between atoms: _75  and  _76
REMARK   31  A    between atoms: _76  and  _77
REMARK   32  A    between atoms: _81  and  _83
REMARK   33  A    between atoms: _83  and  _84
REMARK   34  A    between atoms: _83  and  _86
REMARK   35  A    between atoms: _86  and  _87
REMARK   36  A    between atoms: _90  and  _92
REMARK   37  A    between atoms: _92  and  _93
REMARK   38  A    between atoms: _92  and  _95
REMARK   39  A    between atoms: _95  and  _96
REMARK   40  A    between atoms: _96  and  _97
REMARK   41  A    between atoms: _97  and  _98
REMARK   42  A    between atoms: _107  and  _109
REMARK   43  A    between atoms: _109  and  _110
REMARK   44  A    between atoms: _109  and  _112
REMARK   45  A    between atoms: _112  and  _113
REMARK   46  A    between atoms: _115  and  _117
REMARK   47  A    between atoms: _117  and  _118
REMARK   48  A    between atoms: _117  and  _120
REMARK   49  A    between atoms: _120  and  _121
REMARK   50  A    between atoms: _126  and  _127
REMARK   51  A    between atoms: _129  and  _131
REMARK   52  A    between atoms: _131  and  _132
REMARK   53  A    between atoms: _131  and  _134
REMARK   54  A    between atoms: _134  and  _135
REMARK   55  A    between atoms: _145  and  _147
REMARK   56  A    between atoms: _147  and  _148
REMARK   57  A    between atoms: _147  and  _150
REMARK   58  A    between atoms: _150  and  _151
REMARK   59  A    between atoms: _154  and  _156
REMARK   60  A    between atoms: _156  and  _157
REMARK   61  A    between atoms: _156  and  _159
REMARK   62  A    between atoms: _159  and  _160
REMARK   63  A    between atoms: _163  and  _165
REMARK   64  A    between atoms: _165  and  _166
REMARK   65  A    between atoms: _165  and  _168
REMARK   66  A    between atoms: _168  and  _169
REMARK   67  A    between atoms: _172  and  _174
REMARK   68  A    between atoms: _174  and  _175
REMARK   69  A    between atoms: _174  and  _177
REMARK   70  A    between atoms: _177  and  _178
REMARK   71  A    between atoms: _181  and  _183
REMARK   72  A    between atoms: _183  and  _184
REMARK   73  A    between atoms: _183  and  _186
REMARK   74  A    between atoms: _190  and  _191
REMARK   75  A    between atoms: _196  and  _198
REMARK   76  A    between atoms: _198  and  _199
REMARK   77  A    between atoms: _198  and  _201
REMARK   78  A    between atoms: _201  and  _202
REMARK   79  A    between atoms: _205  and  _207
REMARK   80  A    between atoms: _207  and  _208
REMARK   81  A    between atoms: _207  and  _210
REMARK   82  A    between atoms: _210  and  _211
REMARK   83  A    between atoms: _211  and  _212
REMARK   84  A    between atoms: _215  and  _217
REMARK   85  A    between atoms: _217  and  _218
REMARK   86  A    between atoms: _217  and  _220
REMARK   87  A    between atoms: _220  and  _221
REMARK   88  A    between atoms: _226  and  _227
REMARK   89  A    between atoms: _229  and  _231
REMARK   90  A    between atoms: _231  and  _232
REMARK   91  A    between atoms: _231  and  _234
REMARK   92  A    between atoms: _234  and  _235
REMARK   93  A    between atoms: _238  and  _240
REMARK   94  A    between atoms: _240  and  _241
REMARK   95  A    between atoms: _240  and  _243
REMARK   96  A    between atoms: _243  and  _244
REMARK   97  A    between atoms: _244  and  _245
REMARK   98  A    between atoms: _247  and  _249
REMARK   99  A    between atoms: _249  and  _250
REMARK  100  A    between atoms: _249  and  _252
REMARK  101  A    between atoms: _252  and  _253
REMARK  102  A    between atoms: _263  and  _265
REMARK  103  A    between atoms: _265  and  _266
REMARK  104  A    between atoms: _265  and  _268
REMARK  105  A    between atoms: _268  and  _269
REMARK  106  A    between atoms: _272  and  _274
REMARK  107  A    between atoms: _274  and  _275
REMARK  108  A    between atoms: _277  and  _279
REMARK  109  A    between atoms: _279  and  _280
REMARK  110  A    between atoms: _282  and  _284
REMARK  111  A    between atoms: _284  and  _285
REMARK  112  A    between atoms: _284  and  _287
REMARK  113  A    between atoms: _290  and  _292
REMARK  114  A    between atoms: _292  and  _293
REMARK  115  A    between atoms: _292  and  _295
REMARK  116  A    between atoms: _298  and  _300
REMARK  117  A    between atoms: _300  and  _301
REMARK  118  A    between atoms: _300  and  _303
REMARK  119  A    between atoms: _306  and  _308
REMARK  120  A    between atoms: _308  and  _309
REMARK  121  A    between atoms: _308  and  _311
REMARK  122  A    between atoms: _311  and  _312
REMARK  123  A    between atoms: _322  and  _324
REMARK  124  A    between atoms: _324  and  _325
REMARK  125  A    between atoms: _324  and  _327
REMARK  126  A    between atoms: _327  and  _328
REMARK  127  A    between atoms: _338  and  _340
REMARK  128  A    between atoms: _340  and  _341
REMARK  129  A    between atoms: _340  and  _343
REMARK  130  A    between atoms: _343  and  _344
REMARK  131  A    between atoms: _349  and  _351
REMARK  132  A    between atoms: _351  and  _352
REMARK  133  A    between atoms: _351  and  _354
REMARK  134  A    between atoms: _354  and  _355
REMARK  135  A    between atoms: _360  and  _361
REMARK  136  A    between atoms: _363  and  _365
REMARK  137  A    between atoms: _365  and  _366
REMARK  138  A    between atoms: _365  and  _368
REMARK  139  A    between atoms: _371  and  _373
REMARK  140  A    between atoms: _373  and  _374
REMARK  141  A    between atoms: _373  and  _376
REMARK  142  A    between atoms: _376  and  _377
REMARK  143  A    between atoms: _380  and  _382
REMARK  144  A    between atoms: _382  and  _383
REMARK  145  A    between atoms: _382  and  _385
REMARK  146  A    between atoms: _385  and  _386
REMARK  147  A    between atoms: _389  and  _391
REMARK  148  A    between atoms: _391  and  _392
REMARK  149  A    between atoms: _391  and  _394
REMARK  150  A    between atoms: _394  and  _395
REMARK  151  A    between atoms: _400  and  _401
REMARK  152  A    between atoms: _403  and  _405
REMARK  153  A    between atoms: _405  and  _406
REMARK  154  A    between atoms: _405  and  _408
REMARK  155  A    between atoms: _408  and  _409
REMARK  156  A    between atoms: _415  and  _417
REMARK  157  A    between atoms: _417  and  _418
REMARK  158  A    between atoms: _417  and  _420
REMARK  159  A    between atoms: _420  and  _421
REMARK  160  A    between atoms: _427  and  _428
REMARK  161  A    between atoms: _433  and  _435
REMARK  162  A    between atoms: _435  and  _436
REMARK  163  A    between atoms: _435  and  _438
REMARK  164  A    between atoms: _438  and  _439
REMARK  165  A    between atoms: _444  and  _446
REMARK  166  A    between atoms: _446  and  _447
REMARK  167  A    between atoms: _446  and  _449
REMARK  168  A    between atoms: _449  and  _450
REMARK  169  A    between atoms: _460  and  _462
REMARK  170  A    between atoms: _462  and  _463
REMARK  171  A    between atoms: _466  and  _468
REMARK  172  A    between atoms: _468  and  _469
REMARK  173  A    between atoms: _468  and  _471
REMARK  174  A    between atoms: _471  and  _472
REMARK  175  A    between atoms: _482  and  _484
REMARK  176  A    between atoms: _484  and  _485
REMARK  177  A    between atoms: _484  and  _487
REMARK  178  A    between atoms: _487  and  _488
REMARK  179  A    between atoms: _488  and  _489
REMARK  180  A    between atoms: _489  and  _490
REMARK  181  A    between atoms: _490  and  _491
REMARK  182  A    between atoms: _495  and  _497
REMARK  183  A    between atoms: _497  and  _498
REMARK  184  A    between atoms: _497  and  _500
REMARK  185  A    between atoms: _500  and  _501
REMARK  186  A    between atoms: _504  and  _506
REMARK  187  A    between atoms: _506  and  _507
REMARK  188  A    between atoms: _506  and  _509
REMARK  189  A    between atoms: _509  and  _510
REMARK  190  A    between atoms: _512  and  _514
REMARK  191  A    between atoms: _514  and  _515
REMARK  192  A    between atoms: _514  and  _517
REMARK  193  A    between atoms: _517  and  _518
REMARK  194  A    between atoms: _520  and  _522
REMARK  195  A    between atoms: _522  and  _523
REMARK  196  A    between atoms: _522  and  _525
REMARK  197  A    between atoms: _525  and  _526
REMARK  198  A    between atoms: _526  and  _527
REMARK  199  A    between atoms: _527  and  _528
REMARK  200  A    between atoms: _528  and  _529
REMARK  201  A    between atoms: _533  and  _535
REMARK  202  A    between atoms: _535  and  _536
REMARK  203  A    between atoms: _535  and  _538
REMARK  204  A    between atoms: _538  and  _539
REMARK  205  A    between atoms: _545  and  _547
REMARK  206  A    between atoms: _547  and  _548
REMARK  207  A    between atoms: _547  and  _550
REMARK  208  A    between atoms: _550  and  _551
REMARK  209  A    between atoms: _554  and  _556
REMARK  210  A    between atoms: _556  and  _557
REMARK  211  A    between atoms: _556  and  _559
REMARK  212  A    between atoms: _559  and  _560
REMARK  213  A    between atoms: _563  and  _565
REMARK  214  A    between atoms: _565  and  _566
REMARK  215  A    between atoms: _565  and  _568
REMARK  216  A    between atoms: _568  and  _569
REMARK  217  A    between atoms: _572  and  _574
REMARK  218  A    between atoms: _574  and  _575
REMARK  219  A    between atoms: _574  and  _577
REMARK  220  A    between atoms: _577  and  _578
REMARK  221  A    between atoms: _581  and  _583
REMARK  222  A    between atoms: _583  and  _584
REMARK  223  A    between atoms: _583  and  _586
REMARK  224  A    between atoms: _586  and  _587
REMARK                            x       y       z     vdW  Elec       q    Type
REMARK                         _______ _______ _______ _____ _____    ______ ____
ROOT
ATOM      1  O   HOH     1      37.388  42.016  15.063  0.00  0.00    +0.000 OA
ENDROOT
TORSDOF 0
REMARK  Name = ../refined-set-2016/2j62/2j62_pocket.pdb
REMARK  224 active torsions:
REMARK  status: ('A' for Active; 'I' for Inactive)
REMARK    1  A    between atoms: _1  and  _3
REMARK    2  A    between atoms: _3  and  _4
REMARK    3  A    between atoms: _3  and  _6
REMARK    4  A    between atoms: _9  and  _11
REMARK    5  A    between atoms: _11  and  _12
REMARK    6  A    between atoms: _11  and  _14
REMARK    7  A    between atoms: _14  and  _15
REMARK    8  A    between atoms: _15  and  _16
REMARK    9  A    between atoms: _19  and  _21
REMARK   10  A    between atoms: _21  and  _22
REMARK   11  A    between atoms: _24  and  _26
REMARK   12  A    between atoms: _26  and  _27
REMARK   13  A    between atoms: _26  and  _29
REMARK   14  A    between atoms: _29  and  _30
REMARK   15  A    between atoms: _36  and  _38
REMARK   16  A    between atoms: _38  and  _39
REMARK   17  A    between atoms: _38  and  _41
REMARK   18  A    between atoms: _41  and  _42
REMARK   19  A    between atoms: _47  and  _48
REMARK   20  A    between atoms: _50  and  _52
REMARK   21  A    between atoms: _52  and  _53
REMARK   22  A    between atoms: _55  and  _57
REMARK   23  A    between atoms: _57  and  _58
REMARK   24  A    between atoms: _62  and  _63
REMARK   25  A    between atoms: _68  and  _70
REMARK   26  A    between atoms: _70  and  _71
REMARK   27  A    between atoms: _70  and  _73
REMARK   28  A    between atoms: _73  and  _74
REMARK   29  A    between atoms: _74  and  _75
REMARK   30  A    between atoms: _75  and  _76
REMARK   31  A    between atoms: _76  and  _77
REMARK   32  A    between atoms: _81  and  _83
REMARK   33  A    between atoms: _83  and  _84
REMARK   34  A    between atoms: _83  and  _86
REMARK   35  A    between atoms: _86  and  _87
REMARK   36  A    between atoms: _90  and  _92
REMARK   37  A    between atoms: _92  and  _93
REMARK   38  A    between atoms: _92  and  _95
REMARK   39  A    between atoms: _95  and  _96
REMARK   40  A    between atoms: _96  and  _97
REMARK   41  A    between atoms: _97  and  _98
REMARK   42  A    between atoms: _107  and  _109
REMARK   43  A    between atoms: _109  and  _110
REMARK   44  A    between atoms: _109  and  _112
REMARK   45  A    between atoms: _112  and  _113
REMARK   46  A    between atoms: _115  and  _117
REMARK   47  A    between atoms: _117  and  _118
REMARK   48  A    between atoms: _117  and  _120
REMARK   49  A    between atoms: _120  and  _121
REMARK   50  A    between atoms: _126  and  _127
REMARK   51  A    between atoms: _129  and  _131
REMARK   52  A    between atoms: _131  and  _132
REMARK   53  A    between atoms: _131  and  _134
REMARK   54  A    between atoms: _134  and  _135
REMARK   55  A    between atoms: _145  and  _147
REMARK   56  A    between atoms: _147  and  _148
REMARK   57  A    between atoms: _147  and  _150
REMARK   58  A    between atoms: _150  and  _151
REMARK   59  A    between atoms: _154  and  _156
REMARK   60  A    between atoms: _156  and  _157
REMARK   61  A    between atoms: _156  and  _159
REMARK   62  A    between atoms: _159  and  _160
REMARK   63  A    between atoms: _163  and  _165
REMARK   64  A    between atoms: _165  and  _166
REMARK   65  A    between atoms: _165  and  _168
REMARK   66  A    between atoms: _168  and  _169
REMARK   67  A    between atoms: _172  and  _174
REMARK   68  A    between atoms: _174  and  _175
REMARK   69  A    between atoms: _174  and  _177
REMARK   70  A    between atoms: _177  and  _178
REMARK   71  A    between atoms: _181  and  _183
REMARK   72  A    between atoms: _183  and  _184
REMARK   73  A    between atoms: _183  and  _186
REMARK   74  A    between atoms: _190  and  _191
REMARK   75  A    between atoms: _196  and  _198
REMARK   76  A    between atoms: _198  and  _199
REMARK   77  A    between atoms: _198  and  _201
REMARK   78  A    between atoms: _201  and  _202
REMARK   79  A    between atoms: _205  and  _207
REMARK   80  A    between atoms: _207  and  _208
REMARK   81  A    between atoms: _207  and  _210
REMARK   82  A    between atoms: _210  and  _211
REMARK   83  A    between atoms: _211  and  _212
REMARK   84  A    between atoms: _215  and  _217
REMARK   85  A    between atoms: _217  and  _218
REMARK   86  A    between atoms: _217  and  _220
REMARK   87  A    between atoms: _220  and  _221
REMARK   88  A    between atoms: _226  and  _227
REMARK   89  A    between atoms: _229  and  _231
REMARK   90  A    between atoms: _231  and  _232
REMARK   91  A    between atoms: _231  and  _234
REMARK   92  A    between atoms: _234  and  _235
REMARK   93  A    between atoms: _238  and  _240
REMARK   94  A    between atoms: _240  and  _241
REMARK   95  A    between atoms: _240  and  _243
REMARK   96  A    between atoms: _243  and  _244
REMARK   97  A    between atoms: _244  and  _245
REMARK   98  A    between atoms: _247  and  _249
REMARK   99  A    between atoms: _249  and  _250
REMARK  100  A    between atoms: _249  and  _252
REMARK  101  A    between atoms: _252  and  _253
REMARK  102  A    between atoms: _263  and  _265
REMARK  103  A    between atoms: _265  and  _266
REMARK  104  A    between atoms: _265  and  _268
REMARK  105  A    between atoms: _268  and  _269
REMARK  106  A    between atoms: _272  and  _274
REMARK  107  A    between atoms: _274  and  _275
REMARK  108  A    between atoms: _277  and  _279
REMARK  109  A    between atoms: _279  and  _280
REMARK  110  A    between atoms: _282  and  _284
REMARK  111  A    between atoms: _284  and  _285
REMARK  112  A    between atoms: _284  and  _287
REMARK  113  A    between atoms: _290  and  _292
REMARK  114  A    between atoms: _292  and  _293
REMARK  115  A    between atoms: _292  and  _295
REMARK  116  A    between atoms: _298  and  _300
REMARK  117  A    between atoms: _300  and  _301
REMARK  118  A    between atoms: _300  and  _303
REMARK  119  A    between atoms: _306  and  _308
REMARK  120  A    between atoms: _308  and  _309
REMARK  121  A    between atoms: _308  and  _311
REMARK  122  A    between atoms: _311  and  _312
REMARK  123  A    between atoms: _322  and  _324
REMARK  124  A    between atoms: _324  and  _325
REMARK  125  A    between atoms: _324  and  _327
REMARK  126  A    between atoms: _327  and  _328
REMARK  127  A    between atoms: _338  and  _340
REMARK  128  A    between atoms: _340  and  _341
REMARK  129  A    between atoms: _340  and  _343
REMARK  130  A    between atoms: _343  and  _344
REMARK  131  A    between atoms: _349  and  _351
REMARK  132  A    between atoms: _351  and  _352
REMARK  133  A    between atoms: _351  and  _354
REMARK  134  A    between atoms: _354  and  _355
REMARK  135  A    between atoms: _360  and  _361
REMARK  136  A    between atoms: _363  and  _365
REMARK  137  A    between atoms: _365  and  _366
REMARK  138  A    between atoms: _365  and  _368
REMARK  139  A    between atoms: _371  and  _373
REMARK  140  A    between atoms: _373  and  _374
REMARK  141  A    between atoms: _373  and  _376
REMARK  142  A    between atoms: _376  and  _377
REMARK  143  A    between atoms: _380  and  _382
REMARK  144  A    between atoms: _382  and  _383
REMARK  145  A    between atoms: _382  and  _385
REMARK  146  A    between atoms: _385  and  _386
REMARK  147  A    between atoms: _389  and  _391
REMARK  148  A    between atoms: _391  and  _392
REMARK  149  A    between atoms: _391  and  _394
REMARK  150  A    between atoms: _394  and  _395
REMARK  151  A    between atoms: _400  and  _401
REMARK  152  A    between atoms: _403  and  _405
REMARK  153  A    between atoms: _405  and  _406
REMARK  154  A    between atoms: _405  and  _408
REMARK  155  A    between atoms: _408  and  _409
REMARK  156  A    between atoms: _415  and  _417
REMARK  157  A    between atoms: _417  and  _418
REMARK  158  A    between atoms: _417  and  _420
REMARK  159  A    between atoms: _420  and  _421
REMARK  160  A    between atoms: _427  and  _428
REMARK  161  A    between atoms: _433  and  _435
REMARK  162  A    between atoms: _435  and  _436
REMARK  163  A    between atoms: _435  and  _438
REMARK  164  A    between atoms: _438  and  _439
REMARK  165  A    between atoms: _444  and  _446
REMARK  166  A    between atoms: _446  and  _447
REMARK  167  A    between atoms: _446  and  _449
REMARK  168  A    between atoms: _449  and  _450
REMARK  169  A    between atoms: _460  and  _462
REMARK  170  A    between atoms: _462  and  _463
REMARK  171  A    between atoms: _466  and  _468
REMARK  172  A    between atoms: _468  and  _469
REMARK  173  A    between atoms: _468  and  _471
REMARK  174  A    between atoms: _471  and  _472
REMARK  175  A    between atoms: _482  and  _484
REMARK  176  A    between atoms: _484  and  _485
REMARK  177  A    between atoms: _484  and  _487
REMARK  178  A    between atoms: _487  and  _488
REMARK  179  A    between atoms: _488  and  _489
REMARK  180  A    between atoms: _489  and  _490
REMARK  181  A    between atoms: _490  and  _491
REMARK  182  A    between atoms: _495  and  _497
REMARK  183  A    between atoms: _497  and  _498
REMARK  184  A    between atoms: _497  and  _500
REMARK  185  A    between atoms: _500  and  _501
REMARK  186  A    between atoms: _504  and  _506
REMARK  187  A    between atoms: _506  and  _507
REMARK  188  A    between atoms: _506  and  _509
REMARK  189  A    between atoms: _509  and  _510
REMARK  190  A    between atoms: _512  and  _514
REMARK  191  A    between atoms: _514  and  _515
REMARK  192  A    between atoms: _514  and  _517
REMARK  193  A    between atoms: _517  and  _518
REMARK  194  A    between atoms: _520  and  _522
REMARK  195  A    between atoms: _522  and  _523
REMARK  196  A    between atoms: _522  and  _525
REMARK  197  A    between atoms: _525  and  _526
REMARK  198  A    between atoms: _526  and  _527
REMARK  199  A    between atoms: _527  and  _528
REMARK  200  A    between atoms: _528  and  _529
REMARK  201  A    between atoms: _533  and  _535
REMARK  202  A    between atoms: _535  and  _536
REMARK  203  A    between atoms: _535  and  _538
REMARK  204  A    between atoms: _538  and  _539
REMARK  205  A    between atoms: _545  and  _547
REMARK  206  A    between atoms: _547  and  _548
REMARK  207  A    between atoms: _547  and  _550
REMARK  208  A    between atoms: _550  and  _551
REMARK  209  A    between atoms: _554  and  _556
REMARK  210  A    between atoms: _556  and  _557
REMARK  211  A    between atoms: _556  and  _559
REMARK  212  A    between atoms: _559  and  _560
REMARK  213  A    between atoms: _563  and  _565
REMARK  214  A    between atoms: _565  and  _566
REMARK  215  A    between atoms: _565  and  _568
REMARK  216  A    between atoms: _568  and  _569
REMARK  217  A    between atoms: _572  and  _574
REMARK  218  A    between atoms: _574  and  _575
REMARK  219  A    between atoms: _574  and  _577
REMARK  220  A    between atoms: _577  and  _578
REMARK  221  A    between atoms: _581  and  _583
REMARK  222  A    between atoms: _583  and  _584
REMARK  223  A    between atoms: _583  and  _586
REMARK  224  A    between atoms: _586  and  _587
REMARK                            x       y       z     vdW  Elec       q    Type
REMARK                         _______ _______ _______ _____ _____    ______ ____
ROOT
ATOM      1  O   HOH     1      34.824  40.705  15.846  0.00  0.00    +0.000 OA
ENDROOT
TORSDOF 0
REMARK  Name = ../refined-set-2016/2j62/2j62_pocket.pdb
REMARK  224 active torsions:
REMARK  status: ('A' for Active; 'I' for Inactive)
REMARK    1  A    between atoms: _1  and  _3
REMARK    2  A    between atoms: _3  and  _4
REMARK    3  A    between atoms: _3  and  _6
REMARK    4  A    between atoms: _9  and  _11
REMARK    5  A    between atoms: _11  and  _12
REMARK    6  A    between atoms: _11  and  _14
REMARK    7  A    between atoms: _14  and  _15
REMARK    8  A    between atoms: _15  and  _16
REMARK    9  A    between atoms: _19  and  _21
REMARK   10  A    between atoms: _21  and  _22
REMARK   11  A    between atoms: _24  and  _26
REMARK   12  A    between atoms: _26  and  _27
REMARK   13  A    between atoms: _26  and  _29
REMARK   14  A    between atoms: _29  and  _30
REMARK   15  A    between atoms: _36  and  _38
REMARK   16  A    between atoms: _38  and  _39
REMARK   17  A    between atoms: _38  and  _41
REMARK   18  A    between atoms: _41  and  _42
REMARK   19  A    between atoms: _47  and  _48
REMARK   20  A    between atoms: _50  and  _52
REMARK   21  A    between atoms: _52  and  _53
REMARK   22  A    between atoms: _55  and  _57
REMARK   23  A    between atoms: _57  and  _58
REMARK   24  A    between atoms: _62  and  _63
REMARK   25  A    between atoms: _68  and  _70
REMARK   26  A    between atoms: _70  and  _71
REMARK   27  A    between atoms: _70  and  _73
REMARK   28  A    between atoms: _73  and  _74
REMARK   29  A    between atoms: _74  and  _75
REMARK   30  A    between atoms: _75  and  _76
REMARK   31  A    between atoms: _76  and  _77
REMARK   32  A    between atoms: _81  and  _83
REMARK   33  A    between atoms: _83  and  _84
REMARK   34  A    between atoms: _83  and  _86
REMARK   35  A    between atoms: _86  and  _87
REMARK   36  A    between atoms: _90  and  _92
REMARK   37  A    between atoms: _92  and  _93
REMARK   38  A    between atoms: _92  and  _95
REMARK   39  A    between atoms: _95  and  _96
REMARK   40  A    between atoms: _96  and  _97
REMARK   41  A    between atoms: _97  and  _98
REMARK   42  A    between atoms: _107  and  _109
REMARK   43  A    between atoms: _109  and  _110
REMARK   44  A    between atoms: _109  and  _112
REMARK   45  A    between atoms: _112  and  _113
REMARK   46  A    between atoms: _115  and  _117
REMARK   47  A    between atoms: _117  and  _118
REMARK   48  A    between atoms: _117  and  _120
REMARK   49  A    between atoms: _120  and  _121
REMARK   50  A    between atoms: _126  and  _127
REMARK   51  A    between atoms: _129  and  _131
REMARK   52  A    between atoms: _131  and  _132
REMARK   53  A    between atoms: _131  and  _134
REMARK   54  A    between atoms: _134  and  _135
REMARK   55  A    between atoms: _145  and  _147
REMARK   56  A    between atoms: _147  and  _148
REMARK   57  A    between atoms: _147  and  _150
REMARK   58  A    between atoms: _150  and  _151
REMARK   59  A    between atoms: _154  and  _156
REMARK   60  A    between atoms: _156  and  _157
REMARK   61  A    between atoms: _156  and  _159
REMARK   62  A    between atoms: _159  and  _160
REMARK   63  A    between atoms: _163  and  _165
REMARK   64  A    between atoms: _165  and  _166
REMARK   65  A    between atoms: _165  and  _168
REMARK   66  A    between atoms: _168  and  _169
REMARK   67  A    between atoms: _172  and  _174
REMARK   68  A    between atoms: _174  and  _175
REMARK   69  A    between atoms: _174  and  _177
REMARK   70  A    between atoms: _177  and  _178
REMARK   71  A    between atoms: _181  and  _183
REMARK   72  A    between atoms: _183  and  _184
REMARK   73  A    between atoms: _183  and  _186
REMARK   74  A    between atoms: _190  and  _191
REMARK   75  A    between atoms: _196  and  _198
REMARK   76  A    between atoms: _198  and  _199
REMARK   77  A    between atoms: _198  and  _201
REMARK   78  A    between atoms: _201  and  _202
REMARK   79  A    between atoms: _205  and  _207
REMARK   80  A    between atoms: _207  and  _208
REMARK   81  A    between atoms: _207  and  _210
REMARK   82  A    between atoms: _210  and  _211
REMARK   83  A    between atoms: _211  and  _212
REMARK   84  A    between atoms: _215  and  _217
REMARK   85  A    between atoms: _217  and  _218
REMARK   86  A    between atoms: _217  and  _220
REMARK   87  A    between atoms: _220  and  _221
REMARK   88  A    between atoms: _226  and  _227
REMARK   89  A    between atoms: _229  and  _231
REMARK   90  A    between atoms: _231  and  _232
REMARK   91  A    between atoms: _231  and  _234
REMARK   92  A    between atoms: _234  and  _235
REMARK   93  A    between atoms: _238  and  _240
REMARK   94  A    between atoms: _240  and  _241
REMARK   95  A    between atoms: _240  and  _243
REMARK   96  A    between atoms: _243  and  _244
REMARK   97  A    between atoms: _244  and  _245
REMARK   98  A    between atoms: _247  and  _249
REMARK   99  A    between atoms: _249  and  _250
REMARK  100  A    between atoms: _249  and  _252
REMARK  101  A    between atoms: _252  and  _253
REMARK  102  A    between atoms: _263  and  _265
REMARK  103  A    between atoms: _265  and  _266
REMARK  104  A    between atoms: _265  and  _268
REMARK  105  A    between atoms: _268  and  _269
REMARK  106  A    between atoms: _272  and  _274
REMARK  107  A    between atoms: _274  and  _275
REMARK  108  A    between atoms: _277  and  _279
REMARK  109  A    between atoms: _279  and  _280
REMARK  110  A    between atoms: _282  and  _284
REMARK  111  A    between atoms: _284  and  _285
REMARK  112  A    between atoms: _284  and  _287
REMARK  113  A    between atoms: _290  and  _292
REMARK  114  A    between atoms: _292  and  _293
REMARK  115  A    between atoms: _292  and  _295
REMARK  116  A    between atoms: _298  and  _300
REMARK  117  A    between atoms: _300  and  _301
REMARK  118  A    between atoms: _300  and  _303
REMARK  119  A    between atoms: _306  and  _308
REMARK  120  A    between atoms: _308  and  _309
REMARK  121  A    between atoms: _308  and  _311
REMARK  122  A    between atoms: _311  and  _312
REMARK  123  A    between atoms: _322  and  _324
REMARK  124  A    between atoms: _324  and  _325
REMARK  125  A    between atoms: _324  and  _327
REMARK  126  A    between atoms: _327  and  _328
REMARK  127  A    between atoms: _338  and  _340
REMARK  128  A    between atoms: _340  and  _341
REMARK  129  A    between atoms: _340  and  _343
REMARK  130  A    between atoms: _343  and  _344
REMARK  131  A    between atoms: _349  and  _351
REMARK  132  A    between atoms: _351  and  _352
REMARK  133  A    between atoms: _351  and  _354
REMARK  134  A    between atoms: _354  and  _355
REMARK  135  A    between atoms: _360  and  _361
REMARK  136  A    between atoms: _363  and  _365
REMARK  137  A    between atoms: _365  and  _366
REMARK  138  A    between atoms: _365  and  _368
REMARK  139  A    between atoms: _371  and  _373
REMARK  140  A    between atoms: _373  and  _374
REMARK  141  A    between atoms: _373  and  _376
REMARK  142  A    between atoms: _376  and  _377
REMARK  143  A    between atoms: _380  and  _382
REMARK  144  A    between atoms: _382  and  _383
REMARK  145  A    between atoms: _382  and  _385
REMARK  146  A    between atoms: _385  and  _386
REMARK  147  A    between atoms: _389  and  _391
REMARK  148  A    between atoms: _391  and  _392
REMARK  149  A    between atoms: _391  and  _394
REMARK  150  A    between atoms: _394  and  _395
REMARK  151  A    between atoms: _400  and  _401
REMARK  152  A    between atoms: _403  and  _405
REMARK  153  A    between atoms: _405  and  _406
REMARK  154  A    between atoms: _405  and  _408
REMARK  155  A    between atoms: _408  and  _409
REMARK  156  A    between atoms: _415  and  _417
REMARK  157  A    between atoms: _417  and  _418
REMARK  158  A    between atoms: _417  and  _420
REMARK  159  A    between atoms: _420  and  _421
REMARK  160  A    between atoms: _427  and  _428
REMARK  161  A    between atoms: _433  and  _435
REMARK  162  A    between atoms: _435  and  _436
REMARK  163  A    between atoms: _435  and  _438
REMARK  164  A    between atoms: _438  and  _439
REMARK  165  A    between atoms: _444  and  _446
REMARK  166  A    between atoms: _446  and  _447
REMARK  167  A    between atoms: _446  and  _449
REMARK  168  A    between atoms: _449  and  _450
REMARK  169  A    between atoms: _460  and  _462
REMARK  170  A    between atoms: _462  and  _463
REMARK  171  A    between atoms: _466  and  _468
REMARK  172  A    between atoms: _468  and  _469
REMARK  173  A    between atoms: _468  and  _471
REMARK  174  A    between atoms: _471  and  _472
REMARK  175  A    between atoms: _482  and  _484
REMARK  176  A    between atoms: _484  and  _485
REMARK  177  A    between atoms: _484  and  _487
REMARK  178  A    between atoms: _487  and  _488
REMARK  179  A    between atoms: _488  and  _489
REMARK  180  A    between atoms: _489  and  _490
REMARK  181  A    between atoms: _490  and  _491
REMARK  182  A    between atoms: _495  and  _497
REMARK  183  A    between atoms: _497  and  _498
REMARK  184  A    between atoms: _497  and  _500
REMARK  185  A    between atoms: _500  and  _501
REMARK  186  A    between atoms: _504  and  _506
REMARK  187  A    between atoms: _506  and  _507
REMARK  188  A    between atoms: _506  and  _509
REMARK  189  A    between atoms: _509  and  _510
REMARK  190  A    between atoms: _512  and  _514
REMARK  191  A    between atoms: _514  and  _515
REMARK  192  A    between atoms: _514  and  _517
REMARK  193  A    between atoms: _517  and  _518
REMARK  194  A    between atoms: _520  and  _522
REMARK  195  A    between atoms: _522  and  _523
REMARK  196  A    between atoms: _522  and  _525
REMARK  197  A    between atoms: _525  and  _526
REMARK  198  A    between atoms: _526  and  _527
REMARK  199  A    between atoms: _527  and  _528
REMARK  200  A    between atoms: _528  and  _529
REMARK  201  A    between atoms: _533  and  _535
REMARK  202  A    between atoms: _535  and  _536
REMARK  203  A    between atoms: _535  and  _538
REMARK  204  A    between atoms: _538  and  _539
REMARK  205  A    between atoms: _545  and  _547
REMARK  206  A    between atoms: _547  and  _548
REMARK  207  A    between atoms: _547  and  _550
REMARK  208  A    between atoms: _550  and  _551
REMARK  209  A    between atoms: _554  and  _556
REMARK  210  A    between atoms: _556  and  _557
REMARK  211  A    between atoms: _556  and  _559
REMARK  212  A    between atoms: _559  and  _560
REMARK  213  A    between atoms: _563  and  _565
REMARK  214  A    between atoms: _565  and  _566
REMARK  215  A    between atoms: _565  and  _568
REMARK  216  A    between atoms: _568  and  _569
REMARK  217  A    between atoms: _572  and  _574
REMARK  218  A    between atoms: _574  and  _575
REMARK  219  A    between atoms: _574  and  _577
REMARK  220  A    between atoms: _577  and  _578
REMARK  221  A    between atoms: _581  and  _583
REMARK  222  A    between atoms: _583  and  _584
REMARK  223  A    between atoms: _583  and  _586
REMARK  224  A    between atoms: _586  and  _587
REMARK                            x       y       z     vdW  Elec       q    Type
REMARK                         _______ _______ _______ _____ _____    ______ ____
ROOT
ATOM      1  O   HOH     1      38.000  37.738  16.445  0.00  0.00    +0.000 OA
ENDROOT
TORSDOF 0
REMARK  Name = ../refined-set-2016/2j62/2j62_pocket.pdb
REMARK  224 active torsions:
REMARK  status: ('A' for Active; 'I' for Inactive)
REMARK    1  A    between atoms: _1  and  _3
REMARK    2  A    between atoms: _3  and  _4
REMARK    3  A    between atoms: _3  and  _6
REMARK    4  A    between atoms: _9  and  _11
REMARK    5  A    between atoms: _11  and  _12
REMARK    6  A    between atoms: _11  and  _14
REMARK    7  A    between atoms: _14  and  _15
REMARK    8  A    between atoms: _15  and  _16
REMARK    9  A    between atoms: _19  and  _21
REMARK   10  A    between atoms: _21  and  _22
REMARK   11  A    between atoms: _24  and  _26
REMARK   12  A    between atoms: _26  and  _27
REMARK   13  A    between atoms: _26  and  _29
REMARK   14  A    between atoms: _29  and  _30
REMARK   15  A    between atoms: _36  and  _38
REMARK   16  A    between atoms: _38  and  _39
REMARK   17  A    between atoms: _38  and  _41
REMARK   18  A    between atoms: _41  and  _42
REMARK   19  A    between atoms: _47  and  _48
REMARK   20  A    between atoms: _50  and  _52
REMARK   21  A    between atoms: _52  and  _53
REMARK   22  A    between atoms: _55  and  _57
REMARK   23  A    between atoms: _57  and  _58
REMARK   24  A    between atoms: _62  and  _63
REMARK   25  A    between atoms: _68  and  _70
REMARK   26  A    between atoms: _70  and  _71
REMARK   27  A    between atoms: _70  and  _73
REMARK   28  A    between atoms: _73  and  _74
REMARK   29  A    between atoms: _74  and  _75
REMARK   30  A    between atoms: _75  and  _76
REMARK   31  A    between atoms: _76  and  _77
REMARK   32  A    between atoms: _81  and  _83
REMARK   33  A    between atoms: _83  and  _84
REMARK   34  A    between atoms: _83  and  _86
REMARK   35  A    between atoms: _86  and  _87
REMARK   36  A    between atoms: _90  and  _92
REMARK   37  A    between atoms: _92  and  _93
REMARK   38  A    between atoms: _92  and  _95
REMARK   39  A    between atoms: _95  and  _96
REMARK   40  A    between atoms: _96  and  _97
REMARK   41  A    between atoms: _97  and  _98
REMARK   42  A    between atoms: _107  and  _109
REMARK   43  A    between atoms: _109  and  _110
REMARK   44  A    between atoms: _109  and  _112
REMARK   45  A    between atoms: _112  and  _113
REMARK   46  A    between atoms: _115  and  _117
REMARK   47  A    between atoms: _117  and  _118
REMARK   48  A    between atoms: _117  and  _120
REMARK   49  A    between atoms: _120  and  _121
REMARK   50  A    between atoms: _126  and  _127
REMARK   51  A    between atoms: _129  and  _131
REMARK   52  A    between atoms: _131  and  _132
REMARK   53  A    between atoms: _131  and  _134
REMARK   54  A    between atoms: _134  and  _135
REMARK   55  A    between atoms: _145  and  _147
REMARK   56  A    between atoms: _147  and  _148
REMARK   57  A    between atoms: _147  and  _150
REMARK   58  A    between atoms: _150  and  _151
REMARK   59  A    between atoms: _154  and  _156
REMARK   60  A    between atoms: _156  and  _157
REMARK   61  A    between atoms: _156  and  _159
REMARK   62  A    between atoms: _159  and  _160
REMARK   63  A    between atoms: _163  and  _165
REMARK   64  A    between atoms: _165  and  _166
REMARK   65  A    between atoms: _165  and  _168
REMARK   66  A    between atoms: _168  and  _169
REMARK   67  A    between atoms: _172  and  _174
REMARK   68  A    between atoms: _174  and  _175
REMARK   69  A    between atoms: _174  and  _177
REMARK   70  A    between atoms: _177  and  _178
REMARK   71  A    between atoms: _181  and  _183
REMARK   72  A    between atoms: _183  and  _184
REMARK   73  A    between atoms: _183  and  _186
REMARK   74  A    between atoms: _190  and  _191
REMARK   75  A    between atoms: _196  and  _198
REMARK   76  A    between atoms: _198  and  _199
REMARK   77  A    between atoms: _198  and  _201
REMARK   78  A    between atoms: _201  and  _202
REMARK   79  A    between atoms: _205  and  _207
REMARK   80  A    between atoms: _207  and  _208
REMARK   81  A    between atoms: _207  and  _210
REMARK   82  A    between atoms: _210  and  _211
REMARK   83  A    between atoms: _211  and  _212
REMARK   84  A    between atoms: _215  and  _217
REMARK   85  A    between atoms: _217  and  _218
REMARK   86  A    between atoms: _217  and  _220
REMARK   87  A    between atoms: _220  and  _221
REMARK   88  A    between atoms: _226  and  _227
REMARK   89  A    between atoms: _229  and  _231
REMARK   90  A    between atoms: _231  and  _232
REMARK   91  A    between atoms: _231  and  _234
REMARK   92  A    between atoms: _234  and  _235
REMARK   93  A    between atoms: _238  and  _240
REMARK   94  A    between atoms: _240  and  _241
REMARK   95  A    between atoms: _240  and  _243
REMARK   96  A    between atoms: _243  and  _244
REMARK   97  A    between atoms: _244  and  _245
REMARK   98  A    between atoms: _247  and  _249
REMARK   99  A    between atoms: _249  and  _250
REMARK  100  A    between atoms: _249  and  _252
REMARK  101  A    between atoms: _252  and  _253
REMARK  102  A    between atoms: _263  and  _265
REMARK  103  A    between atoms: _265  and  _266
REMARK  104  A    between atoms: _265  and  _268
REMARK  105  A    between atoms: _268  and  _269
REMARK  106  A    between atoms: _272  and  _274
REMARK  107  A    between atoms: _274  and  _275
REMARK  108  A    between atoms: _277  and  _279
REMARK  109  A    between atoms: _279  and  _280
REMARK  110  A    between atoms: _282  and  _284
REMARK  111  A    between atoms: _284  and  _285
REMARK  112  A    between atoms: _284  and  _287
REMARK  113  A    between atoms: _290  and  _292
REMARK  114  A    between atoms: _292  and  _293
REMARK  115  A    between atoms: _292  and  _295
REMARK  116  A    between atoms: _298  and  _300
REMARK  117  A    between atoms: _300  and  _301
REMARK  118  A    between atoms: _300  and  _303
REMARK  119  A    between atoms: _306  and  _308
REMARK  120  A    between atoms: _308  and  _309
REMARK  121  A    between atoms: _308  and  _311
REMARK  122  A    between atoms: _311  and  _312
REMARK  123  A    between atoms: _322  and  _324
REMARK  124  A    between atoms: _324  and  _325
REMARK  125  A    between atoms: _324  and  _327
REMARK  126  A    between atoms: _327  and  _328
REMARK  127  A    between atoms: _338  and  _340
REMARK  128  A    between atoms: _340  and  _341
REMARK  129  A    between atoms: _340  and  _343
REMARK  130  A    between atoms: _343  and  _344
REMARK  131  A    between atoms: _349  and  _351
REMARK  132  A    between atoms: _351  and  _352
REMARK  133  A    between atoms: _351  and  _354
REMARK  134  A    between atoms: _354  and  _355
REMARK  135  A    between atoms: _360  and  _361
REMARK  136  A    between atoms: _363  and  _365
REMARK  137  A    between atoms: _365  and  _366
REMARK  138  A    between atoms: _365  and  _368
REMARK  139  A    between atoms: _371  and  _373
REMARK  140  A    between atoms: _373  and  _374
REMARK  141  A    between atoms: _373  and  _376
REMARK  142  A    between atoms: _376  and  _377
REMARK  143  A    between atoms: _380  and  _382
REMARK  144  A    between atoms: _382  and  _383
REMARK  145  A    between atoms: _382  and  _385
REMARK  146  A    between atoms: _385  and  _386
REMARK  147  A    between atoms: _389  and  _391
REMARK  148  A    between atoms: _391  and  _392
REMARK  149  A    between atoms: _391  and  _394
REMARK  150  A    between atoms: _394  and  _395
REMARK  151  A    between atoms: _400  and  _401
REMARK  152  A    between atoms: _403  and  _405
REMARK  153  A    between atoms: _405  and  _406
REMARK  154  A    between atoms: _405  and  _408
REMARK  155  A    between atoms: _408  and  _409
REMARK  156  A    between atoms: _415  and  _417
REMARK  157  A    between atoms: _417  and  _418
REMARK  158  A    between atoms: _417  and  _420
REMARK  159  A    between atoms: _420  and  _421
REMARK  160  A    between atoms: _427  and  _428
REMARK  161  A    between atoms: _433  and  _435
REMARK  162  A    between atoms: _435  and  _436
REMARK  163  A    between atoms: _435  and  _438
REMARK  164  A    between atoms: _438  and  _439
REMARK  165  A    between atoms: _444  and  _446
REMARK  166  A    between atoms: _446  and  _447
REMARK  167  A    between atoms: _446  and  _449
REMARK  168  A    between atoms: _449  and  _450
REMARK  169  A    between atoms: _460  and  _462
REMARK  170  A    between atoms: _462  and  _463
REMARK  171  A    between atoms: _466  and  _468
REMARK  172  A    between atoms: _468  and  _469
REMARK  173  A    between atoms: _468  and  _471
REMARK  174  A    between atoms: _471  and  _472
REMARK  175  A    between atoms: _482  and  _484
REMARK  176  A    between atoms: _484  and  _485
REMARK  177  A    between atoms: _484  and  _487
REMARK  178  A    between atoms: _487  and  _488
REMARK  179  A    between atoms: _488  and  _489
REMARK  180  A    between atoms: _489  and  _490
REMARK  181  A    between atoms: _490  and  _491
REMARK  182  A    between atoms: _495  and  _497
REMARK  183  A    between atoms: _497  and  _498
REMARK  184  A    between atoms: _497  and  _500
REMARK  185  A    between atoms: _500  and  _501
REMARK  186  A    between atoms: _504  and  _506
REMARK  187  A    between atoms: _506  and  _507
REMARK  188  A    between atoms: _506  and  _509
REMARK  189  A    between atoms: _509  and  _510
REMARK  190  A    between atoms: _512  and  _514
REMARK  191  A    between atoms: _514  and  _515
REMARK  192  A    between atoms: _514  and  _517
REMARK  193  A    between atoms: _517  and  _518
REMARK  194  A    between atoms: _520  and  _522
REMARK  195  A    between atoms: _522  and  _523
REMARK  196  A    between atoms: _522  and  _525
REMARK  197  A    between atoms: _525  and  _526
REMARK  198  A    between atoms: _526  and  _527
REMARK  199  A    between atoms: _527  and  _528
REMARK  200  A    between atoms: _528  and  _529
REMARK  201  A    between atoms: _533  and  _535
REMARK  202  A    between atoms: _535  and  _536
REMARK  203  A    between atoms: _535  and  _538
REMARK  204  A    between atoms: _538  and  _539
REMARK  205  A    between atoms: _545  and  _547
REMARK  206  A    between atoms: _547  and  _548
REMARK  207  A    between atoms: _547  and  _550
REMARK  208  A    between atoms: _550  and  _551
REMARK  209  A    between atoms: _554  and  _556
REMARK  210  A    between atoms: _556  and  _557
REMARK  211  A    between atoms: _556  and  _559
REMARK  212  A    between atoms: _559  and  _560
REMARK  213  A    between atoms: _563  and  _565
REMARK  214  A    between atoms: _565  and  _566
REMARK  215  A    between atoms: _565  and  _568
REMARK  216  A    between atoms: _568  and  _569
REMARK  217  A    between atoms: _572  and  _574
REMARK  218  A    between atoms: _574  and  _575
REMARK  219  A    between atoms: _574  and  _577
REMARK  220  A    between atoms: _577  and  _578
REMARK  221  A    between atoms: _581  and  _583
REMARK  222  A    between atoms: _583  and  _584
REMARK  223  A    between atoms: _583  and  _586
REMARK  224  A    between atoms: _586  and  _587
REMARK                            x       y       z     vdW  Elec       q    Type
REMARK                         _______ _______ _______ _____ _____    ______ ____
ROOT
ATOM      1  O   HOH     1      35.221  35.811  14.917  0.00  0.00    +0.000 OA
ENDROOT
TORSDOF 0
REMARK  Name = ../refined-set-2016/2j62/2j62_pocket.pdb
REMARK  224 active torsions:
REMARK  status: ('A' for Active; 'I' for Inactive)
REMARK    1  A    between atoms: _1  and  _3
REMARK    2  A    between atoms: _3  and  _4
REMARK    3  A    between atoms: _3  and  _6
REMARK    4  A    between atoms: _9  and  _11
REMARK    5  A    between atoms: _11  and  _12
REMARK    6  A    between atoms: _11  and  _14
REMARK    7  A    between atoms: _14  and  _15
REMARK    8  A    between atoms: _15  and  _16
REMARK    9  A    between atoms: _19  and  _21
REMARK   10  A    between atoms: _21  and  _22
REMARK   11  A    between atoms: _24  and  _26
REMARK   12  A    between atoms: _26  and  _27
REMARK   13  A    between atoms: _26  and  _29
REMARK   14  A    between atoms: _29  and  _30
REMARK   15  A    between atoms: _36  and  _38
REMARK   16  A    between atoms: _38  and  _39
REMARK   17  A    between atoms: _38  and  _41
REMARK   18  A    between atoms: _41  and  _42
REMARK   19  A    between atoms: _47  and  _48
REMARK   20  A    between atoms: _50  and  _52
REMARK   21  A    between atoms: _52  and  _53
REMARK   22  A    between atoms: _55  and  _57
REMARK   23  A    between atoms: _57  and  _58
REMARK   24  A    between atoms: _62  and  _63
REMARK   25  A    between atoms: _68  and  _70
REMARK   26  A    between atoms: _70  and  _71
REMARK   27  A    between atoms: _70  and  _73
REMARK   28  A    between atoms: _73  and  _74
REMARK   29  A    between atoms: _74  and  _75
REMARK   30  A    between atoms: _75  and  _76
REMARK   31  A    between atoms: _76  and  _77
REMARK   32  A    between atoms: _81  and  _83
REMARK   33  A    between atoms: _83  and  _84
REMARK   34  A    between atoms: _83  and  _86
REMARK   35  A    between atoms: _86  and  _87
REMARK   36  A    between atoms: _90  and  _92
REMARK   37  A    between atoms: _92  and  _93
REMARK   38  A    between atoms: _92  and  _95
REMARK   39  A    between atoms: _95  and  _96
REMARK   40  A    between atoms: _96  and  _97
REMARK   41  A    between atoms: _97  and  _98
REMARK   42  A    between atoms: _107  and  _109
REMARK   43  A    between atoms: _109  and  _110
REMARK   44  A    between atoms: _109  and  _112
REMARK   45  A    between atoms: _112  and  _113
REMARK   46  A    between atoms: _115  and  _117
REMARK   47  A    between atoms: _117  and  _118
REMARK   48  A    between atoms: _117  and  _120
REMARK   49  A    between atoms: _120  and  _121
REMARK   50  A    between atoms: _126  and  _127
REMARK   51  A    between atoms: _129  and  _131
REMARK   52  A    between atoms: _131  and  _132
REMARK   53  A    between atoms: _131  and  _134
REMARK   54  A    between atoms: _134  and  _135
REMARK   55  A    between atoms: _145  and  _147
REMARK   56  A    between atoms: _147  and  _148
REMARK   57  A    between atoms: _147  and  _150
REMARK   58  A    between atoms: _150  and  _151
REMARK   59  A    between atoms: _154  and  _156
REMARK   60  A    between atoms: _156  and  _157
REMARK   61  A    between atoms: _156  and  _159
REMARK   62  A    between atoms: _159  and  _160
REMARK   63  A    between atoms: _163  and  _165
REMARK   64  A    between atoms: _165  and  _166
REMARK   65  A    between atoms: _165  and  _168
REMARK   66  A    between atoms: _168  and  _169
REMARK   67  A    between atoms: _172  and  _174
REMARK   68  A    between atoms: _174  and  _175
REMARK   69  A    between atoms: _174  and  _177
REMARK   70  A    between atoms: _177  and  _178
REMARK   71  A    between atoms: _181  and  _183
REMARK   72  A    between atoms: _183  and  _184
REMARK   73  A    between atoms: _183  and  _186
REMARK   74  A    between atoms: _190  and  _191
REMARK   75  A    between atoms: _196  and  _198
REMARK   76  A    between atoms: _198  and  _199
REMARK   77  A    between atoms: _198  and  _201
REMARK   78  A    between atoms: _201  and  _202
REMARK   79  A    between atoms: _205  and  _207
REMARK   80  A    between atoms: _207  and  _208
REMARK   81  A    between atoms: _207  and  _210
REMARK   82  A    between atoms: _210  and  _211
REMARK   83  A    between atoms: _211  and  _212
REMARK   84  A    between atoms: _215  and  _217
REMARK   85  A    between atoms: _217  and  _218
REMARK   86  A    between atoms: _217  and  _220
REMARK   87  A    between atoms: _220  and  _221
REMARK   88  A    between atoms: _226  and  _227
REMARK   89  A    between atoms: _229  and  _231
REMARK   90  A    between atoms: _231  and  _232
REMARK   91  A    between atoms: _231  and  _234
REMARK   92  A    between atoms: _234  and  _235
REMARK   93  A    between atoms: _238  and  _240
REMARK   94  A    between atoms: _240  and  _241
REMARK   95  A    between atoms: _240  and  _243
REMARK   96  A    between atoms: _243  and  _244
REMARK   97  A    between atoms: _244  and  _245
REMARK   98  A    between atoms: _247  and  _249
REMARK   99  A    between atoms: _249  and  _250
REMARK  100  A    between atoms: _249  and  _252
REMARK  101  A    between atoms: _252  and  _253
REMARK  102  A    between atoms: _263  and  _265
REMARK  103  A    between atoms: _265  and  _266
REMARK  104  A    between atoms: _265  and  _268
REMARK  105  A    between atoms: _268  and  _269
REMARK  106  A    between atoms: _272  and  _274
REMARK  107  A    between atoms: _274  and  _275
REMARK  108  A    between atoms: _277  and  _279
REMARK  109  A    between atoms: _279  and  _280
REMARK  110  A    between atoms: _282  and  _284
REMARK  111  A    between atoms: _284  and  _285
REMARK  112  A    between atoms: _284  and  _287
REMARK  113  A    between atoms: _290  and  _292
REMARK  114  A    between atoms: _292  and  _293
REMARK  115  A    between atoms: _292  and  _295
REMARK  116  A    between atoms: _298  and  _300
REMARK  117  A    between atoms: _300  and  _301
REMARK  118  A    between atoms: _300  and  _303
REMARK  119  A    between atoms: _306  and  _308
REMARK  120  A    between atoms: _308  and  _309
REMARK  121  A    between atoms: _308  and  _311
REMARK  122  A    between atoms: _311  and  _312
REMARK  123  A    between atoms: _322  and  _324
REMARK  124  A    between atoms: _324  and  _325
REMARK  125  A    between atoms: _324  and  _327
REMARK  126  A    between atoms: _327  and  _328
REMARK  127  A    between atoms: _338  and  _340
REMARK  128  A    between atoms: _340  and  _341
REMARK  129  A    between atoms: _340  and  _343
REMARK  130  A    between atoms: _343  and  _344
REMARK  131  A    between atoms: _349  and  _351
REMARK  132  A    between atoms: _351  and  _352
REMARK  133  A    between atoms: _351  and  _354
REMARK  134  A    between atoms: _354  and  _355
REMARK  135  A    between atoms: _360  and  _361
REMARK  136  A    between atoms: _363  and  _365
REMARK  137  A    between atoms: _365  and  _366
REMARK  138  A    between atoms: _365  and  _368
REMARK  139  A    between atoms: _371  and  _373
REMARK  140  A    between atoms: _373  and  _374
REMARK  141  A    between atoms: _373  and  _376
REMARK  142  A    between atoms: _376  and  _377
REMARK  143  A    between atoms: _380  and  _382
REMARK  144  A    between atoms: _382  and  _383
REMARK  145  A    between atoms: _382  and  _385
REMARK  146  A    between atoms: _385  and  _386
REMARK  147  A    between atoms: _389  and  _391
REMARK  148  A    between atoms: _391  and  _392
REMARK  149  A    between atoms: _391  and  _394
REMARK  150  A    between atoms: _394  and  _395
REMARK  151  A    between atoms: _400  and  _401
REMARK  152  A    between atoms: _403  and  _405
REMARK  153  A    between atoms: _405  and  _406
REMARK  154  A    between atoms: _405  and  _408
REMARK  155  A    between atoms: _408  and  _409
REMARK  156  A    between atoms: _415  and  _417
REMARK  157  A    between atoms: _417  and  _418
REMARK  158  A    between atoms: _417  and  _420
REMARK  159  A    between atoms: _420  and  _421
REMARK  160  A    between atoms: _427  and  _428
REMARK  161  A    between atoms: _433  and  _435
REMARK  162  A    between atoms: _435  and  _436
REMARK  163  A    between atoms: _435  and  _438
REMARK  164  A    between atoms: _438  and  _439
REMARK  165  A    between atoms: _444  and  _446
REMARK  166  A    between atoms: _446  and  _447
REMARK  167  A    between atoms: _446  and  _449
REMARK  168  A    between atoms: _449  and  _450
REMARK  169  A    between atoms: _460  and  _462
REMARK  170  A    between atoms: _462  and  _463
REMARK  171  A    between atoms: _466  and  _468
REMARK  172  A    between atoms: _468  and  _469
REMARK  173  A    between atoms: _468  and  _471
REMARK  174  A    between atoms: _471  and  _472
REMARK  175  A    between atoms: _482  and  _484
REMARK  176  A    between atoms: _484  and  _485
REMARK  177  A    between atoms: _484  and  _487
REMARK  178  A    between atoms: _487  and  _488
REMARK  179  A    between atoms: _488  and  _489
REMARK  180  A    between atoms: _489  and  _490
REMARK  181  A    between atoms: _490  and  _491
REMARK  182  A    between atoms: _495  and  _497
REMARK  183  A    between atoms: _497  and  _498
REMARK  184  A    between atoms: _497  and  _500
REMARK  185  A    between atoms: _500  and  _501
REMARK  186  A    between atoms: _504  and  _506
REMARK  187  A    between atoms: _506  and  _507
REMARK  188  A    between atoms: _506  and  _509
REMARK  189  A    between atoms: _509  and  _510
REMARK  190  A    between atoms: _512  and  _514
REMARK  191  A    between atoms: _514  and  _515
REMARK  192  A    between atoms: _514  and  _517
REMARK  193  A    between atoms: _517  and  _518
REMARK  194  A    between atoms: _520  and  _522
REMARK  195  A    between atoms: _522  and  _523
REMARK  196  A    between atoms: _522  and  _525
REMARK  197  A    between atoms: _525  and  _526
REMARK  198  A    between atoms: _526  and  _527
REMARK  199  A    between atoms: _527  and  _528
REMARK  200  A    between atoms: _528  and  _529
REMARK  201  A    between atoms: _533  and  _535
REMARK  202  A    between atoms: _535  and  _536
REMARK  203  A    between atoms: _535  and  _538
REMARK  204  A    between atoms: _538  and  _539
REMARK  205  A    between atoms: _545  and  _547
REMARK  206  A    between atoms: _547  and  _548
REMARK  207  A    between atoms: _547  and  _550
REMARK  208  A    between atoms: _550  and  _551
REMARK  209  A    between atoms: _554  and  _556
REMARK  210  A    between atoms: _556  and  _557
REMARK  211  A    between atoms: _556  and  _559
REMARK  212  A    between atoms: _559  and  _560
REMARK  213  A    between atoms: _563  and  _565
REMARK  214  A    between atoms: _565  and  _566
REMARK  215  A    between atoms: _565  and  _568
REMARK  216  A    between atoms: _568  and  _569
REMARK  217  A    between atoms: _572  and  _574
REMARK  218  A    between atoms: _574  and  _575
REMARK  219  A    between atoms: _574  and  _577
REMARK  220  A    between atoms: _577  and  _578
REMARK  221  A    between atoms: _581  and  _583
REMARK  222  A    between atoms: _583  and  _584
REMARK  223  A    between atoms: _583  and  _586
REMARK  224  A    between atoms: _586  and  _587
REMARK                            x       y       z     vdW  Elec       q    Type
REMARK                         _______ _______ _______ _____ _____    ______ ____
ROOT
ATOM      1  O   HOH     1      34.215  34.417  25.318  0.00  0.00    +0.000 OA
ENDROOT
TORSDOF 0
REMARK  Name = ../refined-set-2016/2j62/2j62_pocket.pdb
REMARK  224 active torsions:
REMARK  status: ('A' for Active; 'I' for Inactive)
REMARK    1  A    between atoms: _1  and  _3
REMARK    2  A    between atoms: _3  and  _4
REMARK    3  A    between atoms: _3  and  _6
REMARK    4  A    between atoms: _9  and  _11
REMARK    5  A    between atoms: _11  and  _12
REMARK    6  A    between atoms: _11  and  _14
REMARK    7  A    between atoms: _14  and  _15
REMARK    8  A    between atoms: _15  and  _16
REMARK    9  A    between atoms: _19  and  _21
REMARK   10  A    between atoms: _21  and  _22
REMARK   11  A    between atoms: _24  and  _26
REMARK   12  A    between atoms: _26  and  _27
REMARK   13  A    between atoms: _26  and  _29
REMARK   14  A    between atoms: _29  and  _30
REMARK   15  A    between atoms: _36  and  _38
REMARK   16  A    between atoms: _38  and  _39
REMARK   17  A    between atoms: _38  and  _41
REMARK   18  A    between atoms: _41  and  _42
REMARK   19  A    between atoms: _47  and  _48
REMARK   20  A    between atoms: _50  and  _52
REMARK   21  A    between atoms: _52  and  _53
REMARK   22  A    between atoms: _55  and  _57
REMARK   23  A    between atoms: _57  and  _58
REMARK   24  A    between atoms: _62  and  _63
REMARK   25  A    between atoms: _68  and  _70
REMARK   26  A    between atoms: _70  and  _71
REMARK   27  A    between atoms: _70  and  _73
REMARK   28  A    between atoms: _73  and  _74
REMARK   29  A    between atoms: _74  and  _75
REMARK   30  A    between atoms: _75  and  _76
REMARK   31  A    between atoms: _76  and  _77
REMARK   32  A    between atoms: _81  and  _83
REMARK   33  A    between atoms: _83  and  _84
REMARK   34  A    between atoms: _83  and  _86
REMARK   35  A    between atoms: _86  and  _87
REMARK   36  A    between atoms: _90  and  _92
REMARK   37  A    between atoms: _92  and  _93
REMARK   38  A    between atoms: _92  and  _95
REMARK   39  A    between atoms: _95  and  _96
REMARK   40  A    between atoms: _96  and  _97
REMARK   41  A    between atoms: _97  and  _98
REMARK   42  A    between atoms: _107  and  _109
REMARK   43  A    between atoms: _109  and  _110
REMARK   44  A    between atoms: _109  and  _112
REMARK   45  A    between atoms: _112  and  _113
REMARK   46  A    between atoms: _115  and  _117
REMARK   47  A    between atoms: _117  and  _118
REMARK   48  A    between atoms: _117  and  _120
REMARK   49  A    between atoms: _120  and  _121
REMARK   50  A    between atoms: _126  and  _127
REMARK   51  A    between atoms: _129  and  _131
REMARK   52  A    between atoms: _131  and  _132
REMARK   53  A    between atoms: _131  and  _134
REMARK   54  A    between atoms: _134  and  _135
REMARK   55  A    between atoms: _145  and  _147
REMARK   56  A    between atoms: _147  and  _148
REMARK   57  A    between atoms: _147  and  _150
REMARK   58  A    between atoms: _150  and  _151
REMARK   59  A    between atoms: _154  and  _156
REMARK   60  A    between atoms: _156  and  _157
REMARK   61  A    between atoms: _156  and  _159
REMARK   62  A    between atoms: _159  and  _160
REMARK   63  A    between atoms: _163  and  _165
REMARK   64  A    between atoms: _165  and  _166
REMARK   65  A    between atoms: _165  and  _168
REMARK   66  A    between atoms: _168  and  _169
REMARK   67  A    between atoms: _172  and  _174
REMARK   68  A    between atoms: _174  and  _175
REMARK   69  A    between atoms: _174  and  _177
REMARK   70  A    between atoms: _177  and  _178
REMARK   71  A    between atoms: _181  and  _183
REMARK   72  A    between atoms: _183  and  _184
REMARK   73  A    between atoms: _183  and  _186
REMARK   74  A    between atoms: _190  and  _191
REMARK   75  A    between atoms: _196  and  _198
REMARK   76  A    between atoms: _198  and  _199
REMARK   77  A    between atoms: _198  and  _201
REMARK   78  A    between atoms: _201  and  _202
REMARK   79  A    between atoms: _205  and  _207
REMARK   80  A    between atoms: _207  and  _208
REMARK   81  A    between atoms: _207  and  _210
REMARK   82  A    between atoms: _210  and  _211
REMARK   83  A    between atoms: _211  and  _212
REMARK   84  A    between atoms: _215  and  _217
REMARK   85  A    between atoms: _217  and  _218
REMARK   86  A    between atoms: _217  and  _220
REMARK   87  A    between atoms: _220  and  _221
REMARK   88  A    between atoms: _226  and  _227
REMARK   89  A    between atoms: _229  and  _231
REMARK   90  A    between atoms: _231  and  _232
REMARK   91  A    between atoms: _231  and  _234
REMARK   92  A    between atoms: _234  and  _235
REMARK   93  A    between atoms: _238  and  _240
REMARK   94  A    between atoms: _240  and  _241
REMARK   95  A    between atoms: _240  and  _243
REMARK   96  A    between atoms: _243  and  _244
REMARK   97  A    between atoms: _244  and  _245
REMARK   98  A    between atoms: _247  and  _249
REMARK   99  A    between atoms: _249  and  _250
REMARK  100  A    between atoms: _249  and  _252
REMARK  101  A    between atoms: _252  and  _253
REMARK  102  A    between atoms: _263  and  _265
REMARK  103  A    between atoms: _265  and  _266
REMARK  104  A    between atoms: _265  and  _268
REMARK  105  A    between atoms: _268  and  _269
REMARK  106  A    between atoms: _272  and  _274
REMARK  107  A    between atoms: _274  and  _275
REMARK  108  A    between atoms: _277  and  _279
REMARK  109  A    between atoms: _279  and  _280
REMARK  110  A    between atoms: _282  and  _284
REMARK  111  A    between atoms: _284  and  _285
REMARK  112  A    between atoms: _284  and  _287
REMARK  113  A    between atoms: _290  and  _292
REMARK  114  A    between atoms: _292  and  _293
REMARK  115  A    between atoms: _292  and  _295
REMARK  116  A    between atoms: _298  and  _300
REMARK  117  A    between atoms: _300  and  _301
REMARK  118  A    between atoms: _300  and  _303
REMARK  119  A    between atoms: _306  and  _308
REMARK  120  A    between atoms: _308  and  _309
REMARK  121  A    between atoms: _308  and  _311
REMARK  122  A    between atoms: _311  and  _312
REMARK  123  A    between atoms: _322  and  _324
REMARK  124  A    between atoms: _324  and  _325
REMARK  125  A    between atoms: _324  and  _327
REMARK  126  A    between atoms: _327  and  _328
REMARK  127  A    between atoms: _338  and  _340
REMARK  128  A    between atoms: _340  and  _341
REMARK  129  A    between atoms: _340  and  _343
REMARK  130  A    between atoms: _343  and  _344
REMARK  131  A    between atoms: _349  and  _351
REMARK  132  A    between atoms: _351  and  _352
REMARK  133  A    between atoms: _351  and  _354
REMARK  134  A    between atoms: _354  and  _355
REMARK  135  A    between atoms: _360  and  _361
REMARK  136  A    between atoms: _363  and  _365
REMARK  137  A    between atoms: _365  and  _366
REMARK  138  A    between atoms: _365  and  _368
REMARK  139  A    between atoms: _371  and  _373
REMARK  140  A    between atoms: _373  and  _374
REMARK  141  A    between atoms: _373  and  _376
REMARK  142  A    between atoms: _376  and  _377
REMARK  143  A    between atoms: _380  and  _382
REMARK  144  A    between atoms: _382  and  _383
REMARK  145  A    between atoms: _382  and  _385
REMARK  146  A    between atoms: _385  and  _386
REMARK  147  A    between atoms: _389  and  _391
REMARK  148  A    between atoms: _391  and  _392
REMARK  149  A    between atoms: _391  and  _394
REMARK  150  A    between atoms: _394  and  _395
REMARK  151  A    between atoms: _400  and  _401
REMARK  152  A    between atoms: _403  and  _405
REMARK  153  A    between atoms: _405  and  _406
REMARK  154  A    between atoms: _405  and  _408
REMARK  155  A    between atoms: _408  and  _409
REMARK  156  A    between atoms: _415  and  _417
REMARK  157  A    between atoms: _417  and  _418
REMARK  158  A    between atoms: _417  and  _420
REMARK  159  A    between atoms: _420  and  _421
REMARK  160  A    between atoms: _427  and  _428
REMARK  161  A    between atoms: _433  and  _435
REMARK  162  A    between atoms: _435  and  _436
REMARK  163  A    between atoms: _435  and  _438
REMARK  164  A    between atoms: _438  and  _439
REMARK  165  A    between atoms: _444  and  _446
REMARK  166  A    between atoms: _446  and  _447
REMARK  167  A    between atoms: _446  and  _449
REMARK  168  A    between atoms: _449  and  _450
REMARK  169  A    between atoms: _460  and  _462
REMARK  170  A    between atoms: _462  and  _463
REMARK  171  A    between atoms: _466  and  _468
REMARK  172  A    between atoms: _468  and  _469
REMARK  173  A    between atoms: _468  and  _471
REMARK  174  A    between atoms: _471  and  _472
REMARK  175  A    between atoms: _482  and  _484
REMARK  176  A    between atoms: _484  and  _485
REMARK  177  A    between atoms: _484  and  _487
REMARK  178  A    between atoms: _487  and  _488
REMARK  179  A    between atoms: _488  and  _489
REMARK  180  A    between atoms: _489  and  _490
REMARK  181  A    between atoms: _490  and  _491
REMARK  182  A    between atoms: _495  and  _497
REMARK  183  A    between atoms: _497  and  _498
REMARK  184  A    between atoms: _497  and  _500
REMARK  185  A    between atoms: _500  and  _501
REMARK  186  A    between atoms: _504  and  _506
REMARK  187  A    between atoms: _506  and  _507
REMARK  188  A    between atoms: _506  and  _509
REMARK  189  A    between atoms: _509  and  _510
REMARK  190  A    between atoms: _512  and  _514
REMARK  191  A    between atoms: _514  and  _515
REMARK  192  A    between atoms: _514  and  _517
REMARK  193  A    between atoms: _517  and  _518
REMARK  194  A    between atoms: _520  and  _522
REMARK  195  A    between atoms: _522  and  _523
REMARK  196  A    between atoms: _522  and  _525
REMARK  197  A    between atoms: _525  and  _526
REMARK  198  A    between atoms: _526  and  _527
REMARK  199  A    between atoms: _527  and  _528
REMARK  200  A    between atoms: _528  and  _529
REMARK  201  A    between atoms: _533  and  _535
REMARK  202  A    between atoms: _535  and  _536
REMARK  203  A    between atoms: _535  and  _538
REMARK  204  A    between atoms: _538  and  _539
REMARK  205  A    between atoms: _545  and  _547
REMARK  206  A    between atoms: _547  and  _548
REMARK  207  A    between atoms: _547  and  _550
REMARK  208  A    between atoms: _550  and  _551
REMARK  209  A    between atoms: _554  and  _556
REMARK  210  A    between atoms: _556  and  _557
REMARK  211  A    between atoms: _556  and  _559
REMARK  212  A    between atoms: _559  and  _560
REMARK  213  A    between atoms: _563  and  _565
REMARK  214  A    between atoms: _565  and  _566
REMARK  215  A    between atoms: _565  and  _568
REMARK  216  A    between atoms: _568  and  _569
REMARK  217  A    between atoms: _572  and  _574
REMARK  218  A    between atoms: _574  and  _575
REMARK  219  A    between atoms: _574  and  _577
REMARK  220  A    between atoms: _577  and  _578
REMARK  221  A    between atoms: _581  and  _583
REMARK  222  A    between atoms: _583  and  _584
REMARK  223  A    between atoms: _583  and  _586
REMARK  224  A    between atoms: _586  and  _587
REMARK                            x       y       z     vdW  Elec       q    Type
REMARK                         _______ _______ _______ _____ _____    ______ ____
ROOT
ATOM      1  O   HOH     1      33.090  33.047  17.217  0.00  0.00    +0.000 OA
ENDROOT
TORSDOF 0
REMARK  Name = ../refined-set-2016/2j62/2j62_pocket.pdb
REMARK  224 active torsions:
REMARK  status: ('A' for Active; 'I' for Inactive)
REMARK    1  A    between atoms: _1  and  _3
REMARK    2  A    between atoms: _3  and  _4
REMARK    3  A    between atoms: _3  and  _6
REMARK    4  A    between atoms: _9  and  _11
REMARK    5  A    between atoms: _11  and  _12
REMARK    6  A    between atoms: _11  and  _14
REMARK    7  A    between atoms: _14  and  _15
REMARK    8  A    between atoms: _15  and  _16
REMARK    9  A    between atoms: _19  and  _21
REMARK   10  A    between atoms: _21  and  _22
REMARK   11  A    between atoms: _24  and  _26
REMARK   12  A    between atoms: _26  and  _27
REMARK   13  A    between atoms: _26  and  _29
REMARK   14  A    between atoms: _29  and  _30
REMARK   15  A    between atoms: _36  and  _38
REMARK   16  A    between atoms: _38  and  _39
REMARK   17  A    between atoms: _38  and  _41
REMARK   18  A    between atoms: _41  and  _42
REMARK   19  A    between atoms: _47  and  _48
REMARK   20  A    between atoms: _50  and  _52
REMARK   21  A    between atoms: _52  and  _53
REMARK   22  A    between atoms: _55  and  _57
REMARK   23  A    between atoms: _57  and  _58
REMARK   24  A    between atoms: _62  and  _63
REMARK   25  A    between atoms: _68  and  _70
REMARK   26  A    between atoms: _70  and  _71
REMARK   27  A    between atoms: _70  and  _73
REMARK   28  A    between atoms: _73  and  _74
REMARK   29  A    between atoms: _74  and  _75
REMARK   30  A    between atoms: _75  and  _76
REMARK   31  A    between atoms: _76  and  _77
REMARK   32  A    between atoms: _81  and  _83
REMARK   33  A    between atoms: _83  and  _84
REMARK   34  A    between atoms: _83  and  _86
REMARK   35  A    between atoms: _86  and  _87
REMARK   36  A    between atoms: _90  and  _92
REMARK   37  A    between atoms: _92  and  _93
REMARK   38  A    between atoms: _92  and  _95
REMARK   39  A    between atoms: _95  and  _96
REMARK   40  A    between atoms: _96  and  _97
REMARK   41  A    between atoms: _97  and  _98
REMARK   42  A    between atoms: _107  and  _109
REMARK   43  A    between atoms: _109  and  _110
REMARK   44  A    between atoms: _109  and  _112
REMARK   45  A    between atoms: _112  and  _113
REMARK   46  A    between atoms: _115  and  _117
REMARK   47  A    between atoms: _117  and  _118
REMARK   48  A    between atoms: _117  and  _120
REMARK   49  A    between atoms: _120  and  _121
REMARK   50  A    between atoms: _126  and  _127
REMARK   51  A    between atoms: _129  and  _131
REMARK   52  A    between atoms: _131  and  _132
REMARK   53  A    between atoms: _131  and  _134
REMARK   54  A    between atoms: _134  and  _135
REMARK   55  A    between atoms: _145  and  _147
REMARK   56  A    between atoms: _147  and  _148
REMARK   57  A    between atoms: _147  and  _150
REMARK   58  A    between atoms: _150  and  _151
REMARK   59  A    between atoms: _154  and  _156
REMARK   60  A    between atoms: _156  and  _157
REMARK   61  A    between atoms: _156  and  _159
REMARK   62  A    between atoms: _159  and  _160
REMARK   63  A    between atoms: _163  and  _165
REMARK   64  A    between atoms: _165  and  _166
REMARK   65  A    between atoms: _165  and  _168
REMARK   66  A    between atoms: _168  and  _169
REMARK   67  A    between atoms: _172  and  _174
REMARK   68  A    between atoms: _174  and  _175
REMARK   69  A    between atoms: _174  and  _177
REMARK   70  A    between atoms: _177  and  _178
REMARK   71  A    between atoms: _181  and  _183
REMARK   72  A    between atoms: _183  and  _184
REMARK   73  A    between atoms: _183  and  _186
REMARK   74  A    between atoms: _190  and  _191
REMARK   75  A    between atoms: _196  and  _198
REMARK   76  A    between atoms: _198  and  _199
REMARK   77  A    between atoms: _198  and  _201
REMARK   78  A    between atoms: _201  and  _202
REMARK   79  A    between atoms: _205  and  _207
REMARK   80  A    between atoms: _207  and  _208
REMARK   81  A    between atoms: _207  and  _210
REMARK   82  A    between atoms: _210  and  _211
REMARK   83  A    between atoms: _211  and  _212
REMARK   84  A    between atoms: _215  and  _217
REMARK   85  A    between atoms: _217  and  _218
REMARK   86  A    between atoms: _217  and  _220
REMARK   87  A    between atoms: _220  and  _221
REMARK   88  A    between atoms: _226  and  _227
REMARK   89  A    between atoms: _229  and  _231
REMARK   90  A    between atoms: _231  and  _232
REMARK   91  A    between atoms: _231  and  _234
REMARK   92  A    between atoms: _234  and  _235
REMARK   93  A    between atoms: _238  and  _240
REMARK   94  A    between atoms: _240  and  _241
REMARK   95  A    between atoms: _240  and  _243
REMARK   96  A    between atoms: _243  and  _244
REMARK   97  A    between atoms: _244  and  _245
REMARK   98  A    between atoms: _247  and  _249
REMARK   99  A    between atoms: _249  and  _250
REMARK  100  A    between atoms: _249  and  _252
REMARK  101  A    between atoms: _252  and  _253
REMARK  102  A    between atoms: _263  and  _265
REMARK  103  A    between atoms: _265  and  _266
REMARK  104  A    between atoms: _265  and  _268
REMARK  105  A    between atoms: _268  and  _269
REMARK  106  A    between atoms: _272  and  _274
REMARK  107  A    between atoms: _274  and  _275
REMARK  108  A    between atoms: _277  and  _279
REMARK  109  A    between atoms: _279  and  _280
REMARK  110  A    between atoms: _282  and  _284
REMARK  111  A    between atoms: _284  and  _285
REMARK  112  A    between atoms: _284  and  _287
REMARK  113  A    between atoms: _290  and  _292
REMARK  114  A    between atoms: _292  and  _293
REMARK  115  A    between atoms: _292  and  _295
REMARK  116  A    between atoms: _298  and  _300
REMARK  117  A    between atoms: _300  and  _301
REMARK  118  A    between atoms: _300  and  _303
REMARK  119  A    between atoms: _306  and  _308
REMARK  120  A    between atoms: _308  and  _309
REMARK  121  A    between atoms: _308  and  _311
REMARK  122  A    between atoms: _311  and  _312
REMARK  123  A    between atoms: _322  and  _324
REMARK  124  A    between atoms: _324  and  _325
REMARK  125  A    between atoms: _324  and  _327
REMARK  126  A    between atoms: _327  and  _328
REMARK  127  A    between atoms: _338  and  _340
REMARK  128  A    between atoms: _340  and  _341
REMARK  129  A    between atoms: _340  and  _343
REMARK  130  A    between atoms: _343  and  _344
REMARK  131  A    between atoms: _349  and  _351
REMARK  132  A    between atoms: _351  and  _352
REMARK  133  A    between atoms: _351  and  _354
REMARK  134  A    between atoms: _354  and  _355
REMARK  135  A    between atoms: _360  and  _361
REMARK  136  A    between atoms: _363  and  _365
REMARK  137  A    between atoms: _365  and  _366
REMARK  138  A    between atoms: _365  and  _368
REMARK  139  A    between atoms: _371  and  _373
REMARK  140  A    between atoms: _373  and  _374
REMARK  141  A    between atoms: _373  and  _376
REMARK  142  A    between atoms: _376  and  _377
REMARK  143  A    between atoms: _380  and  _382
REMARK  144  A    between atoms: _382  and  _383
REMARK  145  A    between atoms: _382  and  _385
REMARK  146  A    between atoms: _385  and  _386
REMARK  147  A    between atoms: _389  and  _391
REMARK  148  A    between atoms: _391  and  _392
REMARK  149  A    between atoms: _391  and  _394
REMARK  150  A    between atoms: _394  and  _395
REMARK  151  A    between atoms: _400  and  _401
REMARK  152  A    between atoms: _403  and  _405
REMARK  153  A    between atoms: _405  and  _406
REMARK  154  A    between atoms: _405  and  _408
REMARK  155  A    between atoms: _408  and  _409
REMARK  156  A    between atoms: _415  and  _417
REMARK  157  A    between atoms: _417  and  _418
REMARK  158  A    between atoms: _417  and  _420
REMARK  159  A    between atoms: _420  and  _421
REMARK  160  A    between atoms: _427  and  _428
REMARK  161  A    between atoms: _433  and  _435
REMARK  162  A    between atoms: _435  and  _436
REMARK  163  A    between atoms: _435  and  _438
REMARK  164  A    between atoms: _438  and  _439
REMARK  165  A    between atoms: _444  and  _446
REMARK  166  A    between atoms: _446  and  _447
REMARK  167  A    between atoms: _446  and  _449
REMARK  168  A    between atoms: _449  and  _450
REMARK  169  A    between atoms: _460  and  _462
REMARK  170  A    between atoms: _462  and  _463
REMARK  171  A    between atoms: _466  and  _468
REMARK  172  A    between atoms: _468  and  _469
REMARK  173  A    between atoms: _468  and  _471
REMARK  174  A    between atoms: _471  and  _472
REMARK  175  A    between atoms: _482  and  _484
REMARK  176  A    between atoms: _484  and  _485
REMARK  177  A    between atoms: _484  and  _487
REMARK  178  A    between atoms: _487  and  _488
REMARK  179  A    between atoms: _488  and  _489
REMARK  180  A    between atoms: _489  and  _490
REMARK  181  A    between atoms: _490  and  _491
REMARK  182  A    between atoms: _495  and  _497
REMARK  183  A    between atoms: _497  and  _498
REMARK  184  A    between atoms: _497  and  _500
REMARK  185  A    between atoms: _500  and  _501
REMARK  186  A    between atoms: _504  and  _506
REMARK  187  A    between atoms: _506  and  _507
REMARK  188  A    between atoms: _506  and  _509
REMARK  189  A    between atoms: _509  and  _510
REMARK  190  A    between atoms: _512  and  _514
REMARK  191  A    between atoms: _514  and  _515
REMARK  192  A    between atoms: _514  and  _517
REMARK  193  A    between atoms: _517  and  _518
REMARK  194  A    between atoms: _520  and  _522
REMARK  195  A    between atoms: _522  and  _523
REMARK  196  A    between atoms: _522  and  _525
REMARK  197  A    between atoms: _525  and  _526
REMARK  198  A    between atoms: _526  and  _527
REMARK  199  A    between atoms: _527  and  _528
REMARK  200  A    between atoms: _528  and  _529
REMARK  201  A    between atoms: _533  and  _535
REMARK  202  A    between atoms: _535  and  _536
REMARK  203  A    between atoms: _535  and  _538
REMARK  204  A    between atoms: _538  and  _539
REMARK  205  A    between atoms: _545  and  _547
REMARK  206  A    between atoms: _547  and  _548
REMARK  207  A    between atoms: _547  and  _550
REMARK  208  A    between atoms: _550  and  _551
REMARK  209  A    between atoms: _554  and  _556
REMARK  210  A    between atoms: _556  and  _557
REMARK  211  A    between atoms: _556  and  _559
REMARK  212  A    between atoms: _559  and  _560
REMARK  213  A    between atoms: _563  and  _565
REMARK  214  A    between atoms: _565  and  _566
REMARK  215  A    between atoms: _565  and  _568
REMARK  216  A    between atoms: _568  and  _569
REMARK  217  A    between atoms: _572  and  _574
REMARK  218  A    between atoms: _574  and  _575
REMARK  219  A    between atoms: _574  and  _577
REMARK  220  A    between atoms: _577  and  _578
REMARK  221  A    between atoms: _581  and  _583
REMARK  222  A    between atoms: _583  and  _584
REMARK  223  A    between atoms: _583  and  _586
REMARK  224  A    between atoms: _586  and  _587
REMARK                            x       y       z     vdW  Elec       q    Type
REMARK                         _______ _______ _______ _____ _____    ______ ____
ROOT
ATOM      1  O   HOH     1      27.156  35.765  27.176  0.00  0.00    +0.000 OA
ENDROOT
TORSDOF 0
REMARK  Name = ../refined-set-2016/2j62/2j62_pocket.pdb
REMARK  224 active torsions:
REMARK  status: ('A' for Active; 'I' for Inactive)
REMARK    1  A    between atoms: _1  and  _3
REMARK    2  A    between atoms: _3  and  _4
REMARK    3  A    between atoms: _3  and  _6
REMARK    4  A    between atoms: _9  and  _11
REMARK    5  A    between atoms: _11  and  _12
REMARK    6  A    between atoms: _11  and  _14
REMARK    7  A    between atoms: _14  and  _15
REMARK    8  A    between atoms: _15  and  _16
REMARK    9  A    between atoms: _19  and  _21
REMARK   10  A    between atoms: _21  and  _22
REMARK   11  A    between atoms: _24  and  _26
REMARK   12  A    between atoms: _26  and  _27
REMARK   13  A    between atoms: _26  and  _29
REMARK   14  A    between atoms: _29  and  _30
REMARK   15  A    between atoms: _36  and  _38
REMARK   16  A    between atoms: _38  and  _39
REMARK   17  A    between atoms: _38  and  _41
REMARK   18  A    between atoms: _41  and  _42
REMARK   19  A    between atoms: _47  and  _48
REMARK   20  A    between atoms: _50  and  _52
REMARK   21  A    between atoms: _52  and  _53
REMARK   22  A    between atoms: _55  and  _57
REMARK   23  A    between atoms: _57  and  _58
REMARK   24  A    between atoms: _62  and  _63
REMARK   25  A    between atoms: _68  and  _70
REMARK   26  A    between atoms: _70  and  _71
REMARK   27  A    between atoms: _70  and  _73
REMARK   28  A    between atoms: _73  and  _74
REMARK   29  A    between atoms: _74  and  _75
REMARK   30  A    between atoms: _75  and  _76
REMARK   31  A    between atoms: _76  and  _77
REMARK   32  A    between atoms: _81  and  _83
REMARK   33  A    between atoms: _83  and  _84
REMARK   34  A    between atoms: _83  and  _86
REMARK   35  A    between atoms: _86  and  _87
REMARK   36  A    between atoms: _90  and  _92
REMARK   37  A    between atoms: _92  and  _93
REMARK   38  A    between atoms: _92  and  _95
REMARK   39  A    between atoms: _95  and  _96
REMARK   40  A    between atoms: _96  and  _97
REMARK   41  A    between atoms: _97  and  _98
REMARK   42  A    between atoms: _107  and  _109
REMARK   43  A    between atoms: _109  and  _110
REMARK   44  A    between atoms: _109  and  _112
REMARK   45  A    between atoms: _112  and  _113
REMARK   46  A    between atoms: _115  and  _117
REMARK   47  A    between atoms: _117  and  _118
REMARK   48  A    between atoms: _117  and  _120
REMARK   49  A    between atoms: _120  and  _121
REMARK   50  A    between atoms: _126  and  _127
REMARK   51  A    between atoms: _129  and  _131
REMARK   52  A    between atoms: _131  and  _132
REMARK   53  A    between atoms: _131  and  _134
REMARK   54  A    between atoms: _134  and  _135
REMARK   55  A    between atoms: _145  and  _147
REMARK   56  A    between atoms: _147  and  _148
REMARK   57  A    between atoms: _147  and  _150
REMARK   58  A    between atoms: _150  and  _151
REMARK   59  A    between atoms: _154  and  _156
REMARK   60  A    between atoms: _156  and  _157
REMARK   61  A    between atoms: _156  and  _159
REMARK   62  A    between atoms: _159  and  _160
REMARK   63  A    between atoms: _163  and  _165
REMARK   64  A    between atoms: _165  and  _166
REMARK   65  A    between atoms: _165  and  _168
REMARK   66  A    between atoms: _168  and  _169
REMARK   67  A    between atoms: _172  and  _174
REMARK   68  A    between atoms: _174  and  _175
REMARK   69  A    between atoms: _174  and  _177
REMARK   70  A    between atoms: _177  and  _178
REMARK   71  A    between atoms: _181  and  _183
REMARK   72  A    between atoms: _183  and  _184
REMARK   73  A    between atoms: _183  and  _186
REMARK   74  A    between atoms: _190  and  _191
REMARK   75  A    between atoms: _196  and  _198
REMARK   76  A    between atoms: _198  and  _199
REMARK   77  A    between atoms: _198  and  _201
REMARK   78  A    between atoms: _201  and  _202
REMARK   79  A    between atoms: _205  and  _207
REMARK   80  A    between atoms: _207  and  _208
REMARK   81  A    between atoms: _207  and  _210
REMARK   82  A    between atoms: _210  and  _211
REMARK   83  A    between atoms: _211  and  _212
REMARK   84  A    between atoms: _215  and  _217
REMARK   85  A    between atoms: _217  and  _218
REMARK   86  A    between atoms: _217  and  _220
REMARK   87  A    between atoms: _220  and  _221
REMARK   88  A    between atoms: _226  and  _227
REMARK   89  A    between atoms: _229  and  _231
REMARK   90  A    between atoms: _231  and  _232
REMARK   91  A    between atoms: _231  and  _234
REMARK   92  A    between atoms: _234  and  _235
REMARK   93  A    between atoms: _238  and  _240
REMARK   94  A    between atoms: _240  and  _241
REMARK   95  A    between atoms: _240  and  _243
REMARK   96  A    between atoms: _243  and  _244
REMARK   97  A    between atoms: _244  and  _245
REMARK   98  A    between atoms: _247  and  _249
REMARK   99  A    between atoms: _249  and  _250
REMARK  100  A    between atoms: _249  and  _252
REMARK  101  A    between atoms: _252  and  _253
REMARK  102  A    between atoms: _263  and  _265
REMARK  103  A    between atoms: _265  and  _266
REMARK  104  A    between atoms: _265  and  _268
REMARK  105  A    between atoms: _268  and  _269
REMARK  106  A    between atoms: _272  and  _274
REMARK  107  A    between atoms: _274  and  _275
REMARK  108  A    between atoms: _277  and  _279
REMARK  109  A    between atoms: _279  and  _280
REMARK  110  A    between atoms: _282  and  _284
REMARK  111  A    between atoms: _284  and  _285
REMARK  112  A    between atoms: _284  and  _287
REMARK  113  A    between atoms: _290  and  _292
REMARK  114  A    between atoms: _292  and  _293
REMARK  115  A    between atoms: _292  and  _295
REMARK  116  A    between atoms: _298  and  _300
REMARK  117  A    between atoms: _300  and  _301
REMARK  118  A    between atoms: _300  and  _303
REMARK  119  A    between atoms: _306  and  _308
REMARK  120  A    between atoms: _308  and  _309
REMARK  121  A    between atoms: _308  and  _311
REMARK  122  A    between atoms: _311  and  _312
REMARK  123  A    between atoms: _322  and  _324
REMARK  124  A    between atoms: _324  and  _325
REMARK  125  A    between atoms: _324  and  _327
REMARK  126  A    between atoms: _327  and  _328
REMARK  127  A    between atoms: _338  and  _340
REMARK  128  A    between atoms: _340  and  _341
REMARK  129  A    between atoms: _340  and  _343
REMARK  130  A    between atoms: _343  and  _344
REMARK  131  A    between atoms: _349  and  _351
REMARK  132  A    between atoms: _351  and  _352
REMARK  133  A    between atoms: _351  and  _354
REMARK  134  A    between atoms: _354  and  _355
REMARK  135  A    between atoms: _360  and  _361
REMARK  136  A    between atoms: _363  and  _365
REMARK  137  A    between atoms: _365  and  _366
REMARK  138  A    between atoms: _365  and  _368
REMARK  139  A    between atoms: _371  and  _373
REMARK  140  A    between atoms: _373  and  _374
REMARK  141  A    between atoms: _373  and  _376
REMARK  142  A    between atoms: _376  and  _377
REMARK  143  A    between atoms: _380  and  _382
REMARK  144  A    between atoms: _382  and  _383
REMARK  145  A    between atoms: _382  and  _385
REMARK  146  A    between atoms: _385  and  _386
REMARK  147  A    between atoms: _389  and  _391
REMARK  148  A    between atoms: _391  and  _392
REMARK  149  A    between atoms: _391  and  _394
REMARK  150  A    between atoms: _394  and  _395
REMARK  151  A    between atoms: _400  and  _401
REMARK  152  A    between atoms: _403  and  _405
REMARK  153  A    between atoms: _405  and  _406
REMARK  154  A    between atoms: _405  and  _408
REMARK  155  A    between atoms: _408  and  _409
REMARK  156  A    between atoms: _415  and  _417
REMARK  157  A    between atoms: _417  and  _418
REMARK  158  A    between atoms: _417  and  _420
REMARK  159  A    between atoms: _420  and  _421
REMARK  160  A    between atoms: _427  and  _428
REMARK  161  A    between atoms: _433  and  _435
REMARK  162  A    between atoms: _435  and  _436
REMARK  163  A    between atoms: _435  and  _438
REMARK  164  A    between atoms: _438  and  _439
REMARK  165  A    between atoms: _444  and  _446
REMARK  166  A    between atoms: _446  and  _447
REMARK  167  A    between atoms: _446  and  _449
REMARK  168  A    between atoms: _449  and  _450
REMARK  169  A    between atoms: _460  and  _462
REMARK  170  A    between atoms: _462  and  _463
REMARK  171  A    between atoms: _466  and  _468
REMARK  172  A    between atoms: _468  and  _469
REMARK  173  A    between atoms: _468  and  _471
REMARK  174  A    between atoms: _471  and  _472
REMARK  175  A    between atoms: _482  and  _484
REMARK  176  A    between atoms: _484  and  _485
REMARK  177  A    between atoms: _484  and  _487
REMARK  178  A    between atoms: _487  and  _488
REMARK  179  A    between atoms: _488  and  _489
REMARK  180  A    between atoms: _489  and  _490
REMARK  181  A    between atoms: _490  and  _491
REMARK  182  A    between atoms: _495  and  _497
REMARK  183  A    between atoms: _497  and  _498
REMARK  184  A    between atoms: _497  and  _500
REMARK  185  A    between atoms: _500  and  _501
REMARK  186  A    between atoms: _504  and  _506
REMARK  187  A    between atoms: _506  and  _507
REMARK  188  A    between atoms: _506  and  _509
REMARK  189  A    between atoms: _509  and  _510
REMARK  190  A    between atoms: _512  and  _514
REMARK  191  A    between atoms: _514  and  _515
REMARK  192  A    between atoms: _514  and  _517
REMARK  193  A    between atoms: _517  and  _518
REMARK  194  A    between atoms: _520  and  _522
REMARK  195  A    between atoms: _522  and  _523
REMARK  196  A    between atoms: _522  and  _525
REMARK  197  A    between atoms: _525  and  _526
REMARK  198  A    between atoms: _526  and  _527
REMARK  199  A    between atoms: _527  and  _528
REMARK  200  A    between atoms: _528  and  _529
REMARK  201  A    between atoms: _533  and  _535
REMARK  202  A    between atoms: _535  and  _536
REMARK  203  A    between atoms: _535  and  _538
REMARK  204  A    between atoms: _538  and  _539
REMARK  205  A    between atoms: _545  and  _547
REMARK  206  A    between atoms: _547  and  _548
REMARK  207  A    between atoms: _547  and  _550
REMARK  208  A    between atoms: _550  and  _551
REMARK  209  A    between atoms: _554  and  _556
REMARK  210  A    between atoms: _556  and  _557
REMARK  211  A    between atoms: _556  and  _559
REMARK  212  A    between atoms: _559  and  _560
REMARK  213  A    between atoms: _563  and  _565
REMARK  214  A    between atoms: _565  and  _566
REMARK  215  A    between atoms: _565  and  _568
REMARK  216  A    between atoms: _568  and  _569
REMARK  217  A    between atoms: _572  and  _574
REMARK  218  A    between atoms: _574  and  _575
REMARK  219  A    between atoms: _574  and  _577
REMARK  220  A    between atoms: _577  and  _578
REMARK  221  A    between atoms: _581  and  _583
REMARK  222  A    between atoms: _583  and  _584
REMARK  223  A    between atoms: _583  and  _586
REMARK  224  A    between atoms: _586  and  _587
REMARK                            x       y       z     vdW  Elec       q    Type
REMARK                         _______ _______ _______ _____ _____    ______ ____
ROOT
ATOM      1  O   HOH     1      24.206  43.444  28.296  0.00  0.00    +0.000 OA
ENDROOT
TORSDOF 0
REMARK  Name = ../refined-set-2016/2j62/2j62_pocket.pdb
REMARK  224 active torsions:
REMARK  status: ('A' for Active; 'I' for Inactive)
REMARK    1  A    between atoms: _1  and  _3
REMARK    2  A    between atoms: _3  and  _4
REMARK    3  A    between atoms: _3  and  _6
REMARK    4  A    between atoms: _9  and  _11
REMARK    5  A    between atoms: _11  and  _12
REMARK    6  A    between atoms: _11  and  _14
REMARK    7  A    between atoms: _14  and  _15
REMARK    8  A    between atoms: _15  and  _16
REMARK    9  A    between atoms: _19  and  _21
REMARK   10  A    between atoms: _21  and  _22
REMARK   11  A    between atoms: _24  and  _26
REMARK   12  A    between atoms: _26  and  _27
REMARK   13  A    between atoms: _26  and  _29
REMARK   14  A    between atoms: _29  and  _30
REMARK   15  A    between atoms: _36  and  _38
REMARK   16  A    between atoms: _38  and  _39
REMARK   17  A    between atoms: _38  and  _41
REMARK   18  A    between atoms: _41  and  _42
REMARK   19  A    between atoms: _47  and  _48
REMARK   20  A    between atoms: _50  and  _52
REMARK   21  A    between atoms: _52  and  _53
REMARK   22  A    between atoms: _55  and  _57
REMARK   23  A    between atoms: _57  and  _58
REMARK   24  A    between atoms: _62  and  _63
REMARK   25  A    between atoms: _68  and  _70
REMARK   26  A    between atoms: _70  and  _71
REMARK   27  A    between atoms: _70  and  _73
REMARK   28  A    between atoms: _73  and  _74
REMARK   29  A    between atoms: _74  and  _75
REMARK   30  A    between atoms: _75  and  _76
REMARK   31  A    between atoms: _76  and  _77
REMARK   32  A    between atoms: _81  and  _83
REMARK   33  A    between atoms: _83  and  _84
REMARK   34  A    between atoms: _83  and  _86
REMARK   35  A    between atoms: _86  and  _87
REMARK   36  A    between atoms: _90  and  _92
REMARK   37  A    between atoms: _92  and  _93
REMARK   38  A    between atoms: _92  and  _95
REMARK   39  A    between atoms: _95  and  _96
REMARK   40  A    between atoms: _96  and  _97
REMARK   41  A    between atoms: _97  and  _98
REMARK   42  A    between atoms: _107  and  _109
REMARK   43  A    between atoms: _109  and  _110
REMARK   44  A    between atoms: _109  and  _112
REMARK   45  A    between atoms: _112  and  _113
REMARK   46  A    between atoms: _115  and  _117
REMARK   47  A    between atoms: _117  and  _118
REMARK   48  A    between atoms: _117  and  _120
REMARK   49  A    between atoms: _120  and  _121
REMARK   50  A    between atoms: _126  and  _127
REMARK   51  A    between atoms: _129  and  _131
REMARK   52  A    between atoms: _131  and  _132
REMARK   53  A    between atoms: _131  and  _134
REMARK   54  A    between atoms: _134  and  _135
REMARK   55  A    between atoms: _145  and  _147
REMARK   56  A    between atoms: _147  and  _148
REMARK   57  A    between atoms: _147  and  _150
REMARK   58  A    between atoms: _150  and  _151
REMARK   59  A    between atoms: _154  and  _156
REMARK   60  A    between atoms: _156  and  _157
REMARK   61  A    between atoms: _156  and  _159
REMARK   62  A    between atoms: _159  and  _160
REMARK   63  A    between atoms: _163  and  _165
REMARK   64  A    between atoms: _165  and  _166
REMARK   65  A    between atoms: _165  and  _168
REMARK   66  A    between atoms: _168  and  _169
REMARK   67  A    between atoms: _172  and  _174
REMARK   68  A    between atoms: _174  and  _175
REMARK   69  A    between atoms: _174  and  _177
REMARK   70  A    between atoms: _177  and  _178
REMARK   71  A    between atoms: _181  and  _183
REMARK   72  A    between atoms: _183  and  _184
REMARK   73  A    between atoms: _183  and  _186
REMARK   74  A    between atoms: _190  and  _191
REMARK   75  A    between atoms: _196  and  _198
REMARK   76  A    between atoms: _198  and  _199
REMARK   77  A    between atoms: _198  and  _201
REMARK   78  A    between atoms: _201  and  _202
REMARK   79  A    between atoms: _205  and  _207
REMARK   80  A    between atoms: _207  and  _208
REMARK   81  A    between atoms: _207  and  _210
REMARK   82  A    between atoms: _210  and  _211
REMARK   83  A    between atoms: _211  and  _212
REMARK   84  A    between atoms: _215  and  _217
REMARK   85  A    between atoms: _217  and  _218
REMARK   86  A    between atoms: _217  and  _220
REMARK   87  A    between atoms: _220  and  _221
REMARK   88  A    between atoms: _226  and  _227
REMARK   89  A    between atoms: _229  and  _231
REMARK   90  A    between atoms: _231  and  _232
REMARK   91  A    between atoms: _231  and  _234
REMARK   92  A    between atoms: _234  and  _235
REMARK   93  A    between atoms: _238  and  _240
REMARK   94  A    between atoms: _240  and  _241
REMARK   95  A    between atoms: _240  and  _243
REMARK   96  A    between atoms: _243  and  _244
REMARK   97  A    between atoms: _244  and  _245
REMARK   98  A    between atoms: _247  and  _249
REMARK   99  A    between atoms: _249  and  _250
REMARK  100  A    between atoms: _249  and  _252
REMARK  101  A    between atoms: _252  and  _253
REMARK  102  A    between atoms: _263  and  _265
REMARK  103  A    between atoms: _265  and  _266
REMARK  104  A    between atoms: _265  and  _268
REMARK  105  A    between atoms: _268  and  _269
REMARK  106  A    between atoms: _272  and  _274
REMARK  107  A    between atoms: _274  and  _275
REMARK  108  A    between atoms: _277  and  _279
REMARK  109  A    between atoms: _279  and  _280
REMARK  110  A    between atoms: _282  and  _284
REMARK  111  A    between atoms: _284  and  _285
REMARK  112  A    between atoms: _284  and  _287
REMARK  113  A    between atoms: _290  and  _292
REMARK  114  A    between atoms: _292  and  _293
REMARK  115  A    between atoms: _292  and  _295
REMARK  116  A    between atoms: _298  and  _300
REMARK  117  A    between atoms: _300  and  _301
REMARK  118  A    between atoms: _300  and  _303
REMARK  119  A    between atoms: _306  and  _308
REMARK  120  A    between atoms: _308  and  _309
REMARK  121  A    between atoms: _308  and  _311
REMARK  122  A    between atoms: _311  and  _312
REMARK  123  A    between atoms: _322  and  _324
REMARK  124  A    between atoms: _324  and  _325
REMARK  125  A    between atoms: _324  and  _327
REMARK  126  A    between atoms: _327  and  _328
REMARK  127  A    between atoms: _338  and  _340
REMARK  128  A    between atoms: _340  and  _341
REMARK  129  A    between atoms: _340  and  _343
REMARK  130  A    between atoms: _343  and  _344
REMARK  131  A    between atoms: _349  and  _351
REMARK  132  A    between atoms: _351  and  _352
REMARK  133  A    between atoms: _351  and  _354
REMARK  134  A    between atoms: _354  and  _355
REMARK  135  A    between atoms: _360  and  _361
REMARK  136  A    between atoms: _363  and  _365
REMARK  137  A    between atoms: _365  and  _366
REMARK  138  A    between atoms: _365  and  _368
REMARK  139  A    between atoms: _371  and  _373
REMARK  140  A    between atoms: _373  and  _374
REMARK  141  A    between atoms: _373  and  _376
REMARK  142  A    between atoms: _376  and  _377
REMARK  143  A    between atoms: _380  and  _382
REMARK  144  A    between atoms: _382  and  _383
REMARK  145  A    between atoms: _382  and  _385
REMARK  146  A    between atoms: _385  and  _386
REMARK  147  A    between atoms: _389  and  _391
REMARK  148  A    between atoms: _391  and  _392
REMARK  149  A    between atoms: _391  and  _394
REMARK  150  A    between atoms: _394  and  _395
REMARK  151  A    between atoms: _400  and  _401
REMARK  152  A    between atoms: _403  and  _405
REMARK  153  A    between atoms: _405  and  _406
REMARK  154  A    between atoms: _405  and  _408
REMARK  155  A    between atoms: _408  and  _409
REMARK  156  A    between atoms: _415  and  _417
REMARK  157  A    between atoms: _417  and  _418
REMARK  158  A    between atoms: _417  and  _420
REMARK  159  A    between atoms: _420  and  _421
REMARK  160  A    between atoms: _427  and  _428
REMARK  161  A    between atoms: _433  and  _435
REMARK  162  A    between atoms: _435  and  _436
REMARK  163  A    between atoms: _435  and  _438
REMARK  164  A    between atoms: _438  and  _439
REMARK  165  A    between atoms: _444  and  _446
REMARK  166  A    between atoms: _446  and  _447
REMARK  167  A    between atoms: _446  and  _449
REMARK  168  A    between atoms: _449  and  _450
REMARK  169  A    between atoms: _460  and  _462
REMARK  170  A    between atoms: _462  and  _463
REMARK  171  A    between atoms: _466  and  _468
REMARK  172  A    between atoms: _468  and  _469
REMARK  173  A    between atoms: _468  and  _471
REMARK  174  A    between atoms: _471  and  _472
REMARK  175  A    between atoms: _482  and  _484
REMARK  176  A    between atoms: _484  and  _485
REMARK  177  A    between atoms: _484  and  _487
REMARK  178  A    between atoms: _487  and  _488
REMARK  179  A    between atoms: _488  and  _489
REMARK  180  A    between atoms: _489  and  _490
REMARK  181  A    between atoms: _490  and  _491
REMARK  182  A    between atoms: _495  and  _497
REMARK  183  A    between atoms: _497  and  _498
REMARK  184  A    between atoms: _497  and  _500
REMARK  185  A    between atoms: _500  and  _501
REMARK  186  A    between atoms: _504  and  _506
REMARK  187  A    between atoms: _506  and  _507
REMARK  188  A    between atoms: _506  and  _509
REMARK  189  A    between atoms: _509  and  _510
REMARK  190  A    between atoms: _512  and  _514
REMARK  191  A    between atoms: _514  and  _515
REMARK  192  A    between atoms: _514  and  _517
REMARK  193  A    between atoms: _517  and  _518
REMARK  194  A    between atoms: _520  and  _522
REMARK  195  A    between atoms: _522  and  _523
REMARK  196  A    between atoms: _522  and  _525
REMARK  197  A    between atoms: _525  and  _526
REMARK  198  A    between atoms: _526  and  _527
REMARK  199  A    between atoms: _527  and  _528
REMARK  200  A    between atoms: _528  and  _529
REMARK  201  A    between atoms: _533  and  _535
REMARK  202  A    between atoms: _535  and  _536
REMARK  203  A    between atoms: _535  and  _538
REMARK  204  A    between atoms: _538  and  _539
REMARK  205  A    between atoms: _545  and  _547
REMARK  206  A    between atoms: _547  and  _548
REMARK  207  A    between atoms: _547  and  _550
REMARK  208  A    between atoms: _550  and  _551
REMARK  209  A    between atoms: _554  and  _556
REMARK  210  A    between atoms: _556  and  _557
REMARK  211  A    between atoms: _556  and  _559
REMARK  212  A    between atoms: _559  and  _560
REMARK  213  A    between atoms: _563  and  _565
REMARK  214  A    between atoms: _565  and  _566
REMARK  215  A    between atoms: _565  and  _568
REMARK  216  A    between atoms: _568  and  _569
REMARK  217  A    between atoms: _572  and  _574
REMARK  218  A    between atoms: _574  and  _575
REMARK  219  A    between atoms: _574  and  _577
REMARK  220  A    between atoms: _577  and  _578
REMARK  221  A    between atoms: _581  and  _583
REMARK  222  A    between atoms: _583  and  _584
REMARK  223  A    between atoms: _583  and  _586
REMARK  224  A    between atoms: _586  and  _587
REMARK                            x       y       z     vdW  Elec       q    Type
REMARK                         _______ _______ _______ _____ _____    ______ ____
ROOT
ATOM      1  O   HOH     1      22.775  38.281  18.263  0.00  0.00    +0.000 OA
ENDROOT
TORSDOF 0
REMARK  Name = ../refined-set-2016/2j62/2j62_pocket.pdb
REMARK  224 active torsions:
REMARK  status: ('A' for Active; 'I' for Inactive)
REMARK    1  A    between atoms: _1  and  _3
REMARK    2  A    between atoms: _3  and  _4
REMARK    3  A    between atoms: _3  and  _6
REMARK    4  A    between atoms: _9  and  _11
REMARK    5  A    between atoms: _11  and  _12
REMARK    6  A    between atoms: _11  and  _14
REMARK    7  A    between atoms: _14  and  _15
REMARK    8  A    between atoms: _15  and  _16
REMARK    9  A    between atoms: _19  and  _21
REMARK   10  A    between atoms: _21  and  _22
REMARK   11  A    between atoms: _24  and  _26
REMARK   12  A    between atoms: _26  and  _27
REMARK   13  A    between atoms: _26  and  _29
REMARK   14  A    between atoms: _29  and  _30
REMARK   15  A    between atoms: _36  and  _38
REMARK   16  A    between atoms: _38  and  _39
REMARK   17  A    between atoms: _38  and  _41
REMARK   18  A    between atoms: _41  and  _42
REMARK   19  A    between atoms: _47  and  _48
REMARK   20  A    between atoms: _50  and  _52
REMARK   21  A    between atoms: _52  and  _53
REMARK   22  A    between atoms: _55  and  _57
REMARK   23  A    between atoms: _57  and  _58
REMARK   24  A    between atoms: _62  and  _63
REMARK   25  A    between atoms: _68  and  _70
REMARK   26  A    between atoms: _70  and  _71
REMARK   27  A    between atoms: _70  and  _73
REMARK   28  A    between atoms: _73  and  _74
REMARK   29  A    between atoms: _74  and  _75
REMARK   30  A    between atoms: _75  and  _76
REMARK   31  A    between atoms: _76  and  _77
REMARK   32  A    between atoms: _81  and  _83
REMARK   33  A    between atoms: _83  and  _84
REMARK   34  A    between atoms: _83  and  _86
REMARK   35  A    between atoms: _86  and  _87
REMARK   36  A    between atoms: _90  and  _92
REMARK   37  A    between atoms: _92  and  _93
REMARK   38  A    between atoms: _92  and  _95
REMARK   39  A    between atoms: _95  and  _96
REMARK   40  A    between atoms: _96  and  _97
REMARK   41  A    between atoms: _97  and  _98
REMARK   42  A    between atoms: _107  and  _109
REMARK   43  A    between atoms: _109  and  _110
REMARK   44  A    between atoms: _109  and  _112
REMARK   45  A    between atoms: _112  and  _113
REMARK   46  A    between atoms: _115  and  _117
REMARK   47  A    between atoms: _117  and  _118
REMARK   48  A    between atoms: _117  and  _120
REMARK   49  A    between atoms: _120  and  _121
REMARK   50  A    between atoms: _126  and  _127
REMARK   51  A    between atoms: _129  and  _131
REMARK   52  A    between atoms: _131  and  _132
REMARK   53  A    between atoms: _131  and  _134
REMARK   54  A    between atoms: _134  and  _135
REMARK   55  A    between atoms: _145  and  _147
REMARK   56  A    between atoms: _147  and  _148
REMARK   57  A    between atoms: _147  and  _150
REMARK   58  A    between atoms: _150  and  _151
REMARK   59  A    between atoms: _154  and  _156
REMARK   60  A    between atoms: _156  and  _157
REMARK   61  A    between atoms: _156  and  _159
REMARK   62  A    between atoms: _159  and  _160
REMARK   63  A    between atoms: _163  and  _165
REMARK   64  A    between atoms: _165  and  _166
REMARK   65  A    between atoms: _165  and  _168
REMARK   66  A    between atoms: _168  and  _169
REMARK   67  A    between atoms: _172  and  _174
REMARK   68  A    between atoms: _174  and  _175
REMARK   69  A    between atoms: _174  and  _177
REMARK   70  A    between atoms: _177  and  _178
REMARK   71  A    between atoms: _181  and  _183
REMARK   72  A    between atoms: _183  and  _184
REMARK   73  A    between atoms: _183  and  _186
REMARK   74  A    between atoms: _190  and  _191
REMARK   75  A    between atoms: _196  and  _198
REMARK   76  A    between atoms: _198  and  _199
REMARK   77  A    between atoms: _198  and  _201
REMARK   78  A    between atoms: _201  and  _202
REMARK   79  A    between atoms: _205  and  _207
REMARK   80  A    between atoms: _207  and  _208
REMARK   81  A    between atoms: _207  and  _210
REMARK   82  A    between atoms: _210  and  _211
REMARK   83  A    between atoms: _211  and  _212
REMARK   84  A    between atoms: _215  and  _217
REMARK   85  A    between atoms: _217  and  _218
REMARK   86  A    between atoms: _217  and  _220
REMARK   87  A    between atoms: _220  and  _221
REMARK   88  A    between atoms: _226  and  _227
REMARK   89  A    between atoms: _229  and  _231
REMARK   90  A    between atoms: _231  and  _232
REMARK   91  A    between atoms: _231  and  _234
REMARK   92  A    between atoms: _234  and  _235
REMARK   93  A    between atoms: _238  and  _240
REMARK   94  A    between atoms: _240  and  _241
REMARK   95  A    between atoms: _240  and  _243
REMARK   96  A    between atoms: _243  and  _244
REMARK   97  A    between atoms: _244  and  _245
REMARK   98  A    between atoms: _247  and  _249
REMARK   99  A    between atoms: _249  and  _250
REMARK  100  A    between atoms: _249  and  _252
REMARK  101  A    between atoms: _252  and  _253
REMARK  102  A    between atoms: _263  and  _265
REMARK  103  A    between atoms: _265  and  _266
REMARK  104  A    between atoms: _265  and  _268
REMARK  105  A    between atoms: _268  and  _269
REMARK  106  A    between atoms: _272  and  _274
REMARK  107  A    between atoms: _274  and  _275
REMARK  108  A    between atoms: _277  and  _279
REMARK  109  A    between atoms: _279  and  _280
REMARK  110  A    between atoms: _282  and  _284
REMARK  111  A    between atoms: _284  and  _285
REMARK  112  A    between atoms: _284  and  _287
REMARK  113  A    between atoms: _290  and  _292
REMARK  114  A    between atoms: _292  and  _293
REMARK  115  A    between atoms: _292  and  _295
REMARK  116  A    between atoms: _298  and  _300
REMARK  117  A    between atoms: _300  and  _301
REMARK  118  A    between atoms: _300  and  _303
REMARK  119  A    between atoms: _306  and  _308
REMARK  120  A    between atoms: _308  and  _309
REMARK  121  A    between atoms: _308  and  _311
REMARK  122  A    between atoms: _311  and  _312
REMARK  123  A    between atoms: _322  and  _324
REMARK  124  A    between atoms: _324  and  _325
REMARK  125  A    between atoms: _324  and  _327
REMARK  126  A    between atoms: _327  and  _328
REMARK  127  A    between atoms: _338  and  _340
REMARK  128  A    between atoms: _340  and  _341
REMARK  129  A    between atoms: _340  and  _343
REMARK  130  A    between atoms: _343  and  _344
REMARK  131  A    between atoms: _349  and  _351
REMARK  132  A    between atoms: _351  and  _352
REMARK  133  A    between atoms: _351  and  _354
REMARK  134  A    between atoms: _354  and  _355
REMARK  135  A    between atoms: _360  and  _361
REMARK  136  A    between atoms: _363  and  _365
REMARK  137  A    between atoms: _365  and  _366
REMARK  138  A    between atoms: _365  and  _368
REMARK  139  A    between atoms: _371  and  _373
REMARK  140  A    between atoms: _373  and  _374
REMARK  141  A    between atoms: _373  and  _376
REMARK  142  A    between atoms: _376  and  _377
REMARK  143  A    between atoms: _380  and  _382
REMARK  144  A    between atoms: _382  and  _383
REMARK  145  A    between atoms: _382  and  _385
REMARK  146  A    between atoms: _385  and  _386
REMARK  147  A    between atoms: _389  and  _391
REMARK  148  A    between atoms: _391  and  _392
REMARK  149  A    between atoms: _391  and  _394
REMARK  150  A    between atoms: _394  and  _395
REMARK  151  A    between atoms: _400  and  _401
REMARK  152  A    between atoms: _403  and  _405
REMARK  153  A    between atoms: _405  and  _406
REMARK  154  A    between atoms: _405  and  _408
REMARK  155  A    between atoms: _408  and  _409
REMARK  156  A    between atoms: _415  and  _417
REMARK  157  A    between atoms: _417  and  _418
REMARK  158  A    between atoms: _417  and  _420
REMARK  159  A    between atoms: _420  and  _421
REMARK  160  A    between atoms: _427  and  _428
REMARK  161  A    between atoms: _433  and  _435
REMARK  162  A    between atoms: _435  and  _436
REMARK  163  A    between atoms: _435  and  _438
REMARK  164  A    between atoms: _438  and  _439
REMARK  165  A    between atoms: _444  and  _446
REMARK  166  A    between atoms: _446  and  _447
REMARK  167  A    between atoms: _446  and  _449
REMARK  168  A    between atoms: _449  and  _450
REMARK  169  A    between atoms: _460  and  _462
REMARK  170  A    between atoms: _462  and  _463
REMARK  171  A    between atoms: _466  and  _468
REMARK  172  A    between atoms: _468  and  _469
REMARK  173  A    between atoms: _468  and  _471
REMARK  174  A    between atoms: _471  and  _472
REMARK  175  A    between atoms: _482  and  _484
REMARK  176  A    between atoms: _484  and  _485
REMARK  177  A    between atoms: _484  and  _487
REMARK  178  A    between atoms: _487  and  _488
REMARK  179  A    between atoms: _488  and  _489
REMARK  180  A    between atoms: _489  and  _490
REMARK  181  A    between atoms: _490  and  _491
REMARK  182  A    between atoms: _495  and  _497
REMARK  183  A    between atoms: _497  and  _498
REMARK  184  A    between atoms: _497  and  _500
REMARK  185  A    between atoms: _500  and  _501
REMARK  186  A    between atoms: _504  and  _506
REMARK  187  A    between atoms: _506  and  _507
REMARK  188  A    between atoms: _506  and  _509
REMARK  189  A    between atoms: _509  and  _510
REMARK  190  A    between atoms: _512  and  _514
REMARK  191  A    between atoms: _514  and  _515
REMARK  192  A    between atoms: _514  and  _517
REMARK  193  A    between atoms: _517  and  _518
REMARK  194  A    between atoms: _520  and  _522
REMARK  195  A    between atoms: _522  and  _523
REMARK  196  A    between atoms: _522  and  _525
REMARK  197  A    between atoms: _525  and  _526
REMARK  198  A    between atoms: _526  and  _527
REMARK  199  A    between atoms: _527  and  _528
REMARK  200  A    between atoms: _528  and  _529
REMARK  201  A    between atoms: _533  and  _535
REMARK  202  A    between atoms: _535  and  _536
REMARK  203  A    between atoms: _535  and  _538
REMARK  204  A    between atoms: _538  and  _539
REMARK  205  A    between atoms: _545  and  _547
REMARK  206  A    between atoms: _547  and  _548
REMARK  207  A    between atoms: _547  and  _550
REMARK  208  A    between atoms: _550  and  _551
REMARK  209  A    between atoms: _554  and  _556
REMARK  210  A    between atoms: _556  and  _557
REMARK  211  A    between atoms: _556  and  _559
REMARK  212  A    between atoms: _559  and  _560
REMARK  213  A    between atoms: _563  and  _565
REMARK  214  A    between atoms: _565  and  _566
REMARK  215  A    between atoms: _565  and  _568
REMARK  216  A    between atoms: _568  and  _569
REMARK  217  A    between atoms: _572  and  _574
REMARK  218  A    between atoms: _574  and  _575
REMARK  219  A    between atoms: _574  and  _577
REMARK  220  A    between atoms: _577  and  _578
REMARK  221  A    between atoms: _581  and  _583
REMARK  222  A    between atoms: _583  and  _584
REMARK  223  A    between atoms: _583  and  _586
REMARK  224  A    between atoms: _586  and  _587
REMARK                            x       y       z     vdW  Elec       q    Type
REMARK                         _______ _______ _______ _____ _____    ______ ____
ROOT
ATOM      1  O   HOH     1      23.772  45.306  26.576  0.00  0.00    +0.000 OA
ENDROOT
TORSDOF 0
REMARK  Name = ../refined-set-2016/2j62/2j62_pocket.pdb
REMARK  224 active torsions:
REMARK  status: ('A' for Active; 'I' for Inactive)
REMARK    1  A    between atoms: _1  and  _3
REMARK    2  A    between atoms: _3  and  _4
REMARK    3  A    between atoms: _3  and  _6
REMARK    4  A    between atoms: _9  and  _11
REMARK    5  A    between atoms: _11  and  _12
REMARK    6  A    between atoms: _11  and  _14
REMARK    7  A    between atoms: _14  and  _15
REMARK    8  A    between atoms: _15  and  _16
REMARK    9  A    between atoms: _19  and  _21
REMARK   10  A    between atoms: _21  and  _22
REMARK   11  A    between atoms: _24  and  _26
REMARK   12  A    between atoms: _26  and  _27
REMARK   13  A    between atoms: _26  and  _29
REMARK   14  A    between atoms: _29  and  _30
REMARK   15  A    between atoms: _36  and  _38
REMARK   16  A    between atoms: _38  and  _39
REMARK   17  A    between atoms: _38  and  _41
REMARK   18  A    between atoms: _41  and  _42
REMARK   19  A    between atoms: _47  and  _48
REMARK   20  A    between atoms: _50  and  _52
REMARK   21  A    between atoms: _52  and  _53
REMARK   22  A    between atoms: _55  and  _57
REMARK   23  A    between atoms: _57  and  _58
REMARK   24  A    between atoms: _62  and  _63
REMARK   25  A    between atoms: _68  and  _70
REMARK   26  A    between atoms: _70  and  _71
REMARK   27  A    between atoms: _70  and  _73
REMARK   28  A    between atoms: _73  and  _74
REMARK   29  A    between atoms: _74  and  _75
REMARK   30  A    between atoms: _75  and  _76
REMARK   31  A    between atoms: _76  and  _77
REMARK   32  A    between atoms: _81  and  _83
REMARK   33  A    between atoms: _83  and  _84
REMARK   34  A    between atoms: _83  and  _86
REMARK   35  A    between atoms: _86  and  _87
REMARK   36  A    between atoms: _90  and  _92
REMARK   37  A    between atoms: _92  and  _93
REMARK   38  A    between atoms: _92  and  _95
REMARK   39  A    between atoms: _95  and  _96
REMARK   40  A    between atoms: _96  and  _97
REMARK   41  A    between atoms: _97  and  _98
REMARK   42  A    between atoms: _107  and  _109
REMARK   43  A    between atoms: _109  and  _110
REMARK   44  A    between atoms: _109  and  _112
REMARK   45  A    between atoms: _112  and  _113
REMARK   46  A    between atoms: _115  and  _117
REMARK   47  A    between atoms: _117  and  _118
REMARK   48  A    between atoms: _117  and  _120
REMARK   49  A    between atoms: _120  and  _121
REMARK   50  A    between atoms: _126  and  _127
REMARK   51  A    between atoms: _129  and  _131
REMARK   52  A    between atoms: _131  and  _132
REMARK   53  A    between atoms: _131  and  _134
REMARK   54  A    between atoms: _134  and  _135
REMARK   55  A    between atoms: _145  and  _147
REMARK   56  A    between atoms: _147  and  _148
REMARK   57  A    between atoms: _147  and  _150
REMARK   58  A    between atoms: _150  and  _151
REMARK   59  A    between atoms: _154  and  _156
REMARK   60  A    between atoms: _156  and  _157
REMARK   61  A    between atoms: _156  and  _159
REMARK   62  A    between atoms: _159  and  _160
REMARK   63  A    between atoms: _163  and  _165
REMARK   64  A    between atoms: _165  and  _166
REMARK   65  A    between atoms: _165  and  _168
REMARK   66  A    between atoms: _168  and  _169
REMARK   67  A    between atoms: _172  and  _174
REMARK   68  A    between atoms: _174  and  _175
REMARK   69  A    between atoms: _174  and  _177
REMARK   70  A    between atoms: _177  and  _178
REMARK   71  A    between atoms: _181  and  _183
REMARK   72  A    between atoms: _183  and  _184
REMARK   73  A    between atoms: _183  and  _186
REMARK   74  A    between atoms: _190  and  _191
REMARK   75  A    between atoms: _196  and  _198
REMARK   76  A    between atoms: _198  and  _199
REMARK   77  A    between atoms: _198  and  _201
REMARK   78  A    between atoms: _201  and  _202
REMARK   79  A    between atoms: _205  and  _207
REMARK   80  A    between atoms: _207  and  _208
REMARK   81  A    between atoms: _207  and  _210
REMARK   82  A    between atoms: _210  and  _211
REMARK   83  A    between atoms: _211  and  _212
REMARK   84  A    between atoms: _215  and  _217
REMARK   85  A    between atoms: _217  and  _218
REMARK   86  A    between atoms: _217  and  _220
REMARK   87  A    between atoms: _220  and  _221
REMARK   88  A    between atoms: _226  and  _227
REMARK   89  A    between atoms: _229  and  _231
REMARK   90  A    between atoms: _231  and  _232
REMARK   91  A    between atoms: _231  and  _234
REMARK   92  A    between atoms: _234  and  _235
REMARK   93  A    between atoms: _238  and  _240
REMARK   94  A    between atoms: _240  and  _241
REMARK   95  A    between atoms: _240  and  _243
REMARK   96  A    between atoms: _243  and  _244
REMARK   97  A    between atoms: _244  and  _245
REMARK   98  A    between atoms: _247  and  _249
REMARK   99  A    between atoms: _249  and  _250
REMARK  100  A    between atoms: _249  and  _252
REMARK  101  A    between atoms: _252  and  _253
REMARK  102  A    between atoms: _263  and  _265
REMARK  103  A    between atoms: _265  and  _266
REMARK  104  A    between atoms: _265  and  _268
REMARK  105  A    between atoms: _268  and  _269
REMARK  106  A    between atoms: _272  and  _274
REMARK  107  A    between atoms: _274  and  _275
REMARK  108  A    between atoms: _277  and  _279
REMARK  109  A    between atoms: _279  and  _280
REMARK  110  A    between atoms: _282  and  _284
REMARK  111  A    between atoms: _284  and  _285
REMARK  112  A    between atoms: _284  and  _287
REMARK  113  A    between atoms: _290  and  _292
REMARK  114  A    between atoms: _292  and  _293
REMARK  115  A    between atoms: _292  and  _295
REMARK  116  A    between atoms: _298  and  _300
REMARK  117  A    between atoms: _300  and  _301
REMARK  118  A    between atoms: _300  and  _303
REMARK  119  A    between atoms: _306  and  _308
REMARK  120  A    between atoms: _308  and  _309
REMARK  121  A    between atoms: _308  and  _311
REMARK  122  A    between atoms: _311  and  _312
REMARK  123  A    between atoms: _322  and  _324
REMARK  124  A    between atoms: _324  and  _325
REMARK  125  A    between atoms: _324  and  _327
REMARK  126  A    between atoms: _327  and  _328
REMARK  127  A    between atoms: _338  and  _340
REMARK  128  A    between atoms: _340  and  _341
REMARK  129  A    between atoms: _340  and  _343
REMARK  130  A    between atoms: _343  and  _344
REMARK  131  A    between atoms: _349  and  _351
REMARK  132  A    between atoms: _351  and  _352
REMARK  133  A    between atoms: _351  and  _354
REMARK  134  A    between atoms: _354  and  _355
REMARK  135  A    between atoms: _360  and  _361
REMARK  136  A    between atoms: _363  and  _365
REMARK  137  A    between atoms: _365  and  _366
REMARK  138  A    between atoms: _365  and  _368
REMARK  139  A    between atoms: _371  and  _373
REMARK  140  A    between atoms: _373  and  _374
REMARK  141  A    between atoms: _373  and  _376
REMARK  142  A    between atoms: _376  and  _377
REMARK  143  A    between atoms: _380  and  _382
REMARK  144  A    between atoms: _382  and  _383
REMARK  145  A    between atoms: _382  and  _385
REMARK  146  A    between atoms: _385  and  _386
REMARK  147  A    between atoms: _389  and  _391
REMARK  148  A    between atoms: _391  and  _392
REMARK  149  A    between atoms: _391  and  _394
REMARK  150  A    between atoms: _394  and  _395
REMARK  151  A    between atoms: _400  and  _401
REMARK  152  A    between atoms: _403  and  _405
REMARK  153  A    between atoms: _405  and  _406
REMARK  154  A    between atoms: _405  and  _408
REMARK  155  A    between atoms: _408  and  _409
REMARK  156  A    between atoms: _415  and  _417
REMARK  157  A    between atoms: _417  and  _418
REMARK  158  A    between atoms: _417  and  _420
REMARK  159  A    between atoms: _420  and  _421
REMARK  160  A    between atoms: _427  and  _428
REMARK  161  A    between atoms: _433  and  _435
REMARK  162  A    between atoms: _435  and  _436
REMARK  163  A    between atoms: _435  and  _438
REMARK  164  A    between atoms: _438  and  _439
REMARK  165  A    between atoms: _444  and  _446
REMARK  166  A    between atoms: _446  and  _447
REMARK  167  A    between atoms: _446  and  _449
REMARK  168  A    between atoms: _449  and  _450
REMARK  169  A    between atoms: _460  and  _462
REMARK  170  A    between atoms: _462  and  _463
REMARK  171  A    between atoms: _466  and  _468
REMARK  172  A    between atoms: _468  and  _469
REMARK  173  A    between atoms: _468  and  _471
REMARK  174  A    between atoms: _471  and  _472
REMARK  175  A    between atoms: _482  and  _484
REMARK  176  A    between atoms: _484  and  _485
REMARK  177  A    between atoms: _484  and  _487
REMARK  178  A    between atoms: _487  and  _488
REMARK  179  A    between atoms: _488  and  _489
REMARK  180  A    between atoms: _489  and  _490
REMARK  181  A    between atoms: _490  and  _491
REMARK  182  A    between atoms: _495  and  _497
REMARK  183  A    between atoms: _497  and  _498
REMARK  184  A    between atoms: _497  and  _500
REMARK  185  A    between atoms: _500  and  _501
REMARK  186  A    between atoms: _504  and  _506
REMARK  187  A    between atoms: _506  and  _507
REMARK  188  A    between atoms: _506  and  _509
REMARK  189  A    between atoms: _509  and  _510
REMARK  190  A    between atoms: _512  and  _514
REMARK  191  A    between atoms: _514  and  _515
REMARK  192  A    between atoms: _514  and  _517
REMARK  193  A    between atoms: _517  and  _518
REMARK  194  A    between atoms: _520  and  _522
REMARK  195  A    between atoms: _522  and  _523
REMARK  196  A    between atoms: _522  and  _525
REMARK  197  A    between atoms: _525  and  _526
REMARK  198  A    between atoms: _526  and  _527
REMARK  199  A    between atoms: _527  and  _528
REMARK  200  A    between atoms: _528  and  _529
REMARK  201  A    between atoms: _533  and  _535
REMARK  202  A    between atoms: _535  and  _536
REMARK  203  A    between atoms: _535  and  _538
REMARK  204  A    between atoms: _538  and  _539
REMARK  205  A    between atoms: _545  and  _547
REMARK  206  A    between atoms: _547  and  _548
REMARK  207  A    between atoms: _547  and  _550
REMARK  208  A    between atoms: _550  and  _551
REMARK  209  A    between atoms: _554  and  _556
REMARK  210  A    between atoms: _556  and  _557
REMARK  211  A    between atoms: _556  and  _559
REMARK  212  A    between atoms: _559  and  _560
REMARK  213  A    between atoms: _563  and  _565
REMARK  214  A    between atoms: _565  and  _566
REMARK  215  A    between atoms: _565  and  _568
REMARK  216  A    between atoms: _568  and  _569
REMARK  217  A    between atoms: _572  and  _574
REMARK  218  A    between atoms: _574  and  _575
REMARK  219  A    between atoms: _574  and  _577
REMARK  220  A    between atoms: _577  and  _578
REMARK  221  A    between atoms: _581  and  _583
REMARK  222  A    between atoms: _583  and  _584
REMARK  223  A    between atoms: _583  and  _586
REMARK  224  A    between atoms: _586  and  _587
REMARK                            x       y       z     vdW  Elec       q    Type
REMARK                         _______ _______ _______ _____ _____    ______ ____
ROOT
ATOM      1  O   HOH     1      28.599  41.673   9.644  0.00  0.00    +0.000 OA
ENDROOT
TORSDOF 0
REMARK  Name = ../refined-set-2016/2j62/2j62_pocket.pdb
REMARK  224 active torsions:
REMARK  status: ('A' for Active; 'I' for Inactive)
REMARK    1  A    between atoms: _1  and  _3
REMARK    2  A    between atoms: _3  and  _4
REMARK    3  A    between atoms: _3  and  _6
REMARK    4  A    between atoms: _9  and  _11
REMARK    5  A    between atoms: _11  and  _12
REMARK    6  A    between atoms: _11  and  _14
REMARK    7  A    between atoms: _14  and  _15
REMARK    8  A    between atoms: _15  and  _16
REMARK    9  A    between atoms: _19  and  _21
REMARK   10  A    between atoms: _21  and  _22
REMARK   11  A    between atoms: _24  and  _26
REMARK   12  A    between atoms: _26  and  _27
REMARK   13  A    between atoms: _26  and  _29
REMARK   14  A    between atoms: _29  and  _30
REMARK   15  A    between atoms: _36  and  _38
REMARK   16  A    between atoms: _38  and  _39
REMARK   17  A    between atoms: _38  and  _41
REMARK   18  A    between atoms: _41  and  _42
REMARK   19  A    between atoms: _47  and  _48
REMARK   20  A    between atoms: _50  and  _52
REMARK   21  A    between atoms: _52  and  _53
REMARK   22  A    between atoms: _55  and  _57
REMARK   23  A    between atoms: _57  and  _58
REMARK   24  A    between atoms: _62  and  _63
REMARK   25  A    between atoms: _68  and  _70
REMARK   26  A    between atoms: _70  and  _71
REMARK   27  A    between atoms: _70  and  _73
REMARK   28  A    between atoms: _73  and  _74
REMARK   29  A    between atoms: _74  and  _75
REMARK   30  A    between atoms: _75  and  _76
REMARK   31  A    between atoms: _76  and  _77
REMARK   32  A    between atoms: _81  and  _83
REMARK   33  A    between atoms: _83  and  _84
REMARK   34  A    between atoms: _83  and  _86
REMARK   35  A    between atoms: _86  and  _87
REMARK   36  A    between atoms: _90  and  _92
REMARK   37  A    between atoms: _92  and  _93
REMARK   38  A    between atoms: _92  and  _95
REMARK   39  A    between atoms: _95  and  _96
REMARK   40  A    between atoms: _96  and  _97
REMARK   41  A    between atoms: _97  and  _98
REMARK   42  A    between atoms: _107  and  _109
REMARK   43  A    between atoms: _109  and  _110
REMARK   44  A    between atoms: _109  and  _112
REMARK   45  A    between atoms: _112  and  _113
REMARK   46  A    between atoms: _115  and  _117
REMARK   47  A    between atoms: _117  and  _118
REMARK   48  A    between atoms: _117  and  _120
REMARK   49  A    between atoms: _120  and  _121
REMARK   50  A    between atoms: _126  and  _127
REMARK   51  A    between atoms: _129  and  _131
REMARK   52  A    between atoms: _131  and  _132
REMARK   53  A    between atoms: _131  and  _134
REMARK   54  A    between atoms: _134  and  _135
REMARK   55  A    between atoms: _145  and  _147
REMARK   56  A    between atoms: _147  and  _148
REMARK   57  A    between atoms: _147  and  _150
REMARK   58  A    between atoms: _150  and  _151
REMARK   59  A    between atoms: _154  and  _156
REMARK   60  A    between atoms: _156  and  _157
REMARK   61  A    between atoms: _156  and  _159
REMARK   62  A    between atoms: _159  and  _160
REMARK   63  A    between atoms: _163  and  _165
REMARK   64  A    between atoms: _165  and  _166
REMARK   65  A    between atoms: _165  and  _168
REMARK   66  A    between atoms: _168  and  _169
REMARK   67  A    between atoms: _172  and  _174
REMARK   68  A    between atoms: _174  and  _175
REMARK   69  A    between atoms: _174  and  _177
REMARK   70  A    between atoms: _177  and  _178
REMARK   71  A    between atoms: _181  and  _183
REMARK   72  A    between atoms: _183  and  _184
REMARK   73  A    between atoms: _183  and  _186
REMARK   74  A    between atoms: _190  and  _191
REMARK   75  A    between atoms: _196  and  _198
REMARK   76  A    between atoms: _198  and  _199
REMARK   77  A    between atoms: _198  and  _201
REMARK   78  A    between atoms: _201  and  _202
REMARK   79  A    between atoms: _205  and  _207
REMARK   80  A    between atoms: _207  and  _208
REMARK   81  A    between atoms: _207  and  _210
REMARK   82  A    between atoms: _210  and  _211
REMARK   83  A    between atoms: _211  and  _212
REMARK   84  A    between atoms: _215  and  _217
REMARK   85  A    between atoms: _217  and  _218
REMARK   86  A    between atoms: _217  and  _220
REMARK   87  A    between atoms: _220  and  _221
REMARK   88  A    between atoms: _226  and  _227
REMARK   89  A    between atoms: _229  and  _231
REMARK   90  A    between atoms: _231  and  _232
REMARK   91  A    between atoms: _231  and  _234
REMARK   92  A    between atoms: _234  and  _235
REMARK   93  A    between atoms: _238  and  _240
REMARK   94  A    between atoms: _240  and  _241
REMARK   95  A    between atoms: _240  and  _243
REMARK   96  A    between atoms: _243  and  _244
REMARK   97  A    between atoms: _244  and  _245
REMARK   98  A    between atoms: _247  and  _249
REMARK   99  A    between atoms: _249  and  _250
REMARK  100  A    between atoms: _249  and  _252
REMARK  101  A    between atoms: _252  and  _253
REMARK  102  A    between atoms: _263  and  _265
REMARK  103  A    between atoms: _265  and  _266
REMARK  104  A    between atoms: _265  and  _268
REMARK  105  A    between atoms: _268  and  _269
REMARK  106  A    between atoms: _272  and  _274
REMARK  107  A    between atoms: _274  and  _275
REMARK  108  A    between atoms: _277  and  _279
REMARK  109  A    between atoms: _279  and  _280
REMARK  110  A    between atoms: _282  and  _284
REMARK  111  A    between atoms: _284  and  _285
REMARK  112  A    between atoms: _284  and  _287
REMARK  113  A    between atoms: _290  and  _292
REMARK  114  A    between atoms: _292  and  _293
REMARK  115  A    between atoms: _292  and  _295
REMARK  116  A    between atoms: _298  and  _300
REMARK  117  A    between atoms: _300  and  _301
REMARK  118  A    between atoms: _300  and  _303
REMARK  119  A    between atoms: _306  and  _308
REMARK  120  A    between atoms: _308  and  _309
REMARK  121  A    between atoms: _308  and  _311
REMARK  122  A    between atoms: _311  and  _312
REMARK  123  A    between atoms: _322  and  _324
REMARK  124  A    between atoms: _324  and  _325
REMARK  125  A    between atoms: _324  and  _327
REMARK  126  A    between atoms: _327  and  _328
REMARK  127  A    between atoms: _338  and  _340
REMARK  128  A    between atoms: _340  and  _341
REMARK  129  A    between atoms: _340  and  _343
REMARK  130  A    between atoms: _343  and  _344
REMARK  131  A    between atoms: _349  and  _351
REMARK  132  A    between atoms: _351  and  _352
REMARK  133  A    between atoms: _351  and  _354
REMARK  134  A    between atoms: _354  and  _355
REMARK  135  A    between atoms: _360  and  _361
REMARK  136  A    between atoms: _363  and  _365
REMARK  137  A    between atoms: _365  and  _366
REMARK  138  A    between atoms: _365  and  _368
REMARK  139  A    between atoms: _371  and  _373
REMARK  140  A    between atoms: _373  and  _374
REMARK  141  A    between atoms: _373  and  _376
REMARK  142  A    between atoms: _376  and  _377
REMARK  143  A    between atoms: _380  and  _382
REMARK  144  A    between atoms: _382  and  _383
REMARK  145  A    between atoms: _382  and  _385
REMARK  146  A    between atoms: _385  and  _386
REMARK  147  A    between atoms: _389  and  _391
REMARK  148  A    between atoms: _391  and  _392
REMARK  149  A    between atoms: _391  and  _394
REMARK  150  A    between atoms: _394  and  _395
REMARK  151  A    between atoms: _400  and  _401
REMARK  152  A    between atoms: _403  and  _405
REMARK  153  A    between atoms: _405  and  _406
REMARK  154  A    between atoms: _405  and  _408
REMARK  155  A    between atoms: _408  and  _409
REMARK  156  A    between atoms: _415  and  _417
REMARK  157  A    between atoms: _417  and  _418
REMARK  158  A    between atoms: _417  and  _420
REMARK  159  A    between atoms: _420  and  _421
REMARK  160  A    between atoms: _427  and  _428
REMARK  161  A    between atoms: _433  and  _435
REMARK  162  A    between atoms: _435  and  _436
REMARK  163  A    between atoms: _435  and  _438
REMARK  164  A    between atoms: _438  and  _439
REMARK  165  A    between atoms: _444  and  _446
REMARK  166  A    between atoms: _446  and  _447
REMARK  167  A    between atoms: _446  and  _449
REMARK  168  A    between atoms: _449  and  _450
REMARK  169  A    between atoms: _460  and  _462
REMARK  170  A    between atoms: _462  and  _463
REMARK  171  A    between atoms: _466  and  _468
REMARK  172  A    between atoms: _468  and  _469
REMARK  173  A    between atoms: _468  and  _471
REMARK  174  A    between atoms: _471  and  _472
REMARK  175  A    between atoms: _482  and  _484
REMARK  176  A    between atoms: _484  and  _485
REMARK  177  A    between atoms: _484  and  _487
REMARK  178  A    between atoms: _487  and  _488
REMARK  179  A    between atoms: _488  and  _489
REMARK  180  A    between atoms: _489  and  _490
REMARK  181  A    between atoms: _490  and  _491
REMARK  182  A    between atoms: _495  and  _497
REMARK  183  A    between atoms: _497  and  _498
REMARK  184  A    between atoms: _497  and  _500
REMARK  185  A    between atoms: _500  and  _501
REMARK  186  A    between atoms: _504  and  _506
REMARK  187  A    between atoms: _506  and  _507
REMARK  188  A    between atoms: _506  and  _509
REMARK  189  A    between atoms: _509  and  _510
REMARK  190  A    between atoms: _512  and  _514
REMARK  191  A    between atoms: _514  and  _515
REMARK  192  A    between atoms: _514  and  _517
REMARK  193  A    between atoms: _517  and  _518
REMARK  194  A    between atoms: _520  and  _522
REMARK  195  A    between atoms: _522  and  _523
REMARK  196  A    between atoms: _522  and  _525
REMARK  197  A    between atoms: _525  and  _526
REMARK  198  A    between atoms: _526  and  _527
REMARK  199  A    between atoms: _527  and  _528
REMARK  200  A    between atoms: _528  and  _529
REMARK  201  A    between atoms: _533  and  _535
REMARK  202  A    between atoms: _535  and  _536
REMARK  203  A    between atoms: _535  and  _538
REMARK  204  A    between atoms: _538  and  _539
REMARK  205  A    between atoms: _545  and  _547
REMARK  206  A    between atoms: _547  and  _548
REMARK  207  A    between atoms: _547  and  _550
REMARK  208  A    between atoms: _550  and  _551
REMARK  209  A    between atoms: _554  and  _556
REMARK  210  A    between atoms: _556  and  _557
REMARK  211  A    between atoms: _556  and  _559
REMARK  212  A    between atoms: _559  and  _560
REMARK  213  A    between atoms: _563  and  _565
REMARK  214  A    between atoms: _565  and  _566
REMARK  215  A    between atoms: _565  and  _568
REMARK  216  A    between atoms: _568  and  _569
REMARK  217  A    between atoms: _572  and  _574
REMARK  218  A    between atoms: _574  and  _575
REMARK  219  A    between atoms: _574  and  _577
REMARK  220  A    between atoms: _577  and  _578
REMARK  221  A    between atoms: _581  and  _583
REMARK  222  A    between atoms: _583  and  _584
REMARK  223  A    between atoms: _583  and  _586
REMARK  224  A    between atoms: _586  and  _587
REMARK                            x       y       z     vdW  Elec       q    Type
REMARK                         _______ _______ _______ _____ _____    ______ ____
ROOT
ATOM      1  O   HOH     1      31.617  33.588  12.709  0.00  0.00    +0.000 OA
ENDROOT
TORSDOF 0
REMARK  Name = ../refined-set-2016/2j62/2j62_pocket.pdb
REMARK  224 active torsions:
REMARK  status: ('A' for Active; 'I' for Inactive)
REMARK    1  A    between atoms: _1  and  _3
REMARK    2  A    between atoms: _3  and  _4
REMARK    3  A    between atoms: _3  and  _6
REMARK    4  A    between atoms: _9  and  _11
REMARK    5  A    between atoms: _11  and  _12
REMARK    6  A    between atoms: _11  and  _14
REMARK    7  A    between atoms: _14  and  _15
REMARK    8  A    between atoms: _15  and  _16
REMARK    9  A    between atoms: _19  and  _21
REMARK   10  A    between atoms: _21  and  _22
REMARK   11  A    between atoms: _24  and  _26
REMARK   12  A    between atoms: _26  and  _27
REMARK   13  A    between atoms: _26  and  _29
REMARK   14  A    between atoms: _29  and  _30
REMARK   15  A    between atoms: _36  and  _38
REMARK   16  A    between atoms: _38  and  _39
REMARK   17  A    between atoms: _38  and  _41
REMARK   18  A    between atoms: _41  and  _42
REMARK   19  A    between atoms: _47  and  _48
REMARK   20  A    between atoms: _50  and  _52
REMARK   21  A    between atoms: _52  and  _53
REMARK   22  A    between atoms: _55  and  _57
REMARK   23  A    between atoms: _57  and  _58
REMARK   24  A    between atoms: _62  and  _63
REMARK   25  A    between atoms: _68  and  _70
REMARK   26  A    between atoms: _70  and  _71
REMARK   27  A    between atoms: _70  and  _73
REMARK   28  A    between atoms: _73  and  _74
REMARK   29  A    between atoms: _74  and  _75
REMARK   30  A    between atoms: _75  and  _76
REMARK   31  A    between atoms: _76  and  _77
REMARK   32  A    between atoms: _81  and  _83
REMARK   33  A    between atoms: _83  and  _84
REMARK   34  A    between atoms: _83  and  _86
REMARK   35  A    between atoms: _86  and  _87
REMARK   36  A    between atoms: _90  and  _92
REMARK   37  A    between atoms: _92  and  _93
REMARK   38  A    between atoms: _92  and  _95
REMARK   39  A    between atoms: _95  and  _96
REMARK   40  A    between atoms: _96  and  _97
REMARK   41  A    between atoms: _97  and  _98
REMARK   42  A    between atoms: _107  and  _109
REMARK   43  A    between atoms: _109  and  _110
REMARK   44  A    between atoms: _109  and  _112
REMARK   45  A    between atoms: _112  and  _113
REMARK   46  A    between atoms: _115  and  _117
REMARK   47  A    between atoms: _117  and  _118
REMARK   48  A    between atoms: _117  and  _120
REMARK   49  A    between atoms: _120  and  _121
REMARK   50  A    between atoms: _126  and  _127
REMARK   51  A    between atoms: _129  and  _131
REMARK   52  A    between atoms: _131  and  _132
REMARK   53  A    between atoms: _131  and  _134
REMARK   54  A    between atoms: _134  and  _135
REMARK   55  A    between atoms: _145  and  _147
REMARK   56  A    between atoms: _147  and  _148
REMARK   57  A    between atoms: _147  and  _150
REMARK   58  A    between atoms: _150  and  _151
REMARK   59  A    between atoms: _154  and  _156
REMARK   60  A    between atoms: _156  and  _157
REMARK   61  A    between atoms: _156  and  _159
REMARK   62  A    between atoms: _159  and  _160
REMARK   63  A    between atoms: _163  and  _165
REMARK   64  A    between atoms: _165  and  _166
REMARK   65  A    between atoms: _165  and  _168
REMARK   66  A    between atoms: _168  and  _169
REMARK   67  A    between atoms: _172  and  _174
REMARK   68  A    between atoms: _174  and  _175
REMARK   69  A    between atoms: _174  and  _177
REMARK   70  A    between atoms: _177  and  _178
REMARK   71  A    between atoms: _181  and  _183
REMARK   72  A    between atoms: _183  and  _184
REMARK   73  A    between atoms: _183  and  _186
REMARK   74  A    between atoms: _190  and  _191
REMARK   75  A    between atoms: _196  and  _198
REMARK   76  A    between atoms: _198  and  _199
REMARK   77  A    between atoms: _198  and  _201
REMARK   78  A    between atoms: _201  and  _202
REMARK   79  A    between atoms: _205  and  _207
REMARK   80  A    between atoms: _207  and  _208
REMARK   81  A    between atoms: _207  and  _210
REMARK   82  A    between atoms: _210  and  _211
REMARK   83  A    between atoms: _211  and  _212
REMARK   84  A    between atoms: _215  and  _217
REMARK   85  A    between atoms: _217  and  _218
REMARK   86  A    between atoms: _217  and  _220
REMARK   87  A    between atoms: _220  and  _221
REMARK   88  A    between atoms: _226  and  _227
REMARK   89  A    between atoms: _229  and  _231
REMARK   90  A    between atoms: _231  and  _232
REMARK   91  A    between atoms: _231  and  _234
REMARK   92  A    between atoms: _234  and  _235
REMARK   93  A    between atoms: _238  and  _240
REMARK   94  A    between atoms: _240  and  _241
REMARK   95  A    between atoms: _240  and  _243
REMARK   96  A    between atoms: _243  and  _244
REMARK   97  A    between atoms: _244  and  _245
REMARK   98  A    between atoms: _247  and  _249
REMARK   99  A    between atoms: _249  and  _250
REMARK  100  A    between atoms: _249  and  _252
REMARK  101  A    between atoms: _252  and  _253
REMARK  102  A    between atoms: _263  and  _265
REMARK  103  A    between atoms: _265  and  _266
REMARK  104  A    between atoms: _265  and  _268
REMARK  105  A    between atoms: _268  and  _269
REMARK  106  A    between atoms: _272  and  _274
REMARK  107  A    between atoms: _274  and  _275
REMARK  108  A    between atoms: _277  and  _279
REMARK  109  A    between atoms: _279  and  _280
REMARK  110  A    between atoms: _282  and  _284
REMARK  111  A    between atoms: _284  and  _285
REMARK  112  A    between atoms: _284  and  _287
REMARK  113  A    between atoms: _290  and  _292
REMARK  114  A    between atoms: _292  and  _293
REMARK  115  A    between atoms: _292  and  _295
REMARK  116  A    between atoms: _298  and  _300
REMARK  117  A    between atoms: _300  and  _301
REMARK  118  A    between atoms: _300  and  _303
REMARK  119  A    between atoms: _306  and  _308
REMARK  120  A    between atoms: _308  and  _309
REMARK  121  A    between atoms: _308  and  _311
REMARK  122  A    between atoms: _311  and  _312
REMARK  123  A    between atoms: _322  and  _324
REMARK  124  A    between atoms: _324  and  _325
REMARK  125  A    between atoms: _324  and  _327
REMARK  126  A    between atoms: _327  and  _328
REMARK  127  A    between atoms: _338  and  _340
REMARK  128  A    between atoms: _340  and  _341
REMARK  129  A    between atoms: _340  and  _343
REMARK  130  A    between atoms: _343  and  _344
REMARK  131  A    between atoms: _349  and  _351
REMARK  132  A    between atoms: _351  and  _352
REMARK  133  A    between atoms: _351  and  _354
REMARK  134  A    between atoms: _354  and  _355
REMARK  135  A    between atoms: _360  and  _361
REMARK  136  A    between atoms: _363  and  _365
REMARK  137  A    between atoms: _365  and  _366
REMARK  138  A    between atoms: _365  and  _368
REMARK  139  A    between atoms: _371  and  _373
REMARK  140  A    between atoms: _373  and  _374
REMARK  141  A    between atoms: _373  and  _376
REMARK  142  A    between atoms: _376  and  _377
REMARK  143  A    between atoms: _380  and  _382
REMARK  144  A    between atoms: _382  and  _383
REMARK  145  A    between atoms: _382  and  _385
REMARK  146  A    between atoms: _385  and  _386
REMARK  147  A    between atoms: _389  and  _391
REMARK  148  A    between atoms: _391  and  _392
REMARK  149  A    between atoms: _391  and  _394
REMARK  150  A    between atoms: _394  and  _395
REMARK  151  A    between atoms: _400  and  _401
REMARK  152  A    between atoms: _403  and  _405
REMARK  153  A    between atoms: _405  and  _406
REMARK  154  A    between atoms: _405  and  _408
REMARK  155  A    between atoms: _408  and  _409
REMARK  156  A    between atoms: _415  and  _417
REMARK  157  A    between atoms: _417  and  _418
REMARK  158  A    between atoms: _417  and  _420
REMARK  159  A    between atoms: _420  and  _421
REMARK  160  A    between atoms: _427  and  _428
REMARK  161  A    between atoms: _433  and  _435
REMARK  162  A    between atoms: _435  and  _436
REMARK  163  A    between atoms: _435  and  _438
REMARK  164  A    between atoms: _438  and  _439
REMARK  165  A    between atoms: _444  and  _446
REMARK  166  A    between atoms: _446  and  _447
REMARK  167  A    between atoms: _446  and  _449
REMARK  168  A    between atoms: _449  and  _450
REMARK  169  A    between atoms: _460  and  _462
REMARK  170  A    between atoms: _462  and  _463
REMARK  171  A    between atoms: _466  and  _468
REMARK  172  A    between atoms: _468  and  _469
REMARK  173  A    between atoms: _468  and  _471
REMARK  174  A    between atoms: _471  and  _472
REMARK  175  A    between atoms: _482  and  _484
REMARK  176  A    between atoms: _484  and  _485
REMARK  177  A    between atoms: _484  and  _487
REMARK  178  A    between atoms: _487  and  _488
REMARK  179  A    between atoms: _488  and  _489
REMARK  180  A    between atoms: _489  and  _490
REMARK  181  A    between atoms: _490  and  _491
REMARK  182  A    between atoms: _495  and  _497
REMARK  183  A    between atoms: _497  and  _498
REMARK  184  A    between atoms: _497  and  _500
REMARK  185  A    between atoms: _500  and  _501
REMARK  186  A    between atoms: _504  and  _506
REMARK  187  A    between atoms: _506  and  _507
REMARK  188  A    between atoms: _506  and  _509
REMARK  189  A    between atoms: _509  and  _510
REMARK  190  A    between atoms: _512  and  _514
REMARK  191  A    between atoms: _514  and  _515
REMARK  192  A    between atoms: _514  and  _517
REMARK  193  A    between atoms: _517  and  _518
REMARK  194  A    between atoms: _520  and  _522
REMARK  195  A    between atoms: _522  and  _523
REMARK  196  A    between atoms: _522  and  _525
REMARK  197  A    between atoms: _525  and  _526
REMARK  198  A    between atoms: _526  and  _527
REMARK  199  A    between atoms: _527  and  _528
REMARK  200  A    between atoms: _528  and  _529
REMARK  201  A    between atoms: _533  and  _535
REMARK  202  A    between atoms: _535  and  _536
REMARK  203  A    between atoms: _535  and  _538
REMARK  204  A    between atoms: _538  and  _539
REMARK  205  A    between atoms: _545  and  _547
REMARK  206  A    between atoms: _547  and  _548
REMARK  207  A    between atoms: _547  and  _550
REMARK  208  A    between atoms: _550  and  _551
REMARK  209  A    between atoms: _554  and  _556
REMARK  210  A    between atoms: _556  and  _557
REMARK  211  A    between atoms: _556  and  _559
REMARK  212  A    between atoms: _559  and  _560
REMARK  213  A    between atoms: _563  and  _565
REMARK  214  A    between atoms: _565  and  _566
REMARK  215  A    between atoms: _565  and  _568
REMARK  216  A    between atoms: _568  and  _569
REMARK  217  A    between atoms: _572  and  _574
REMARK  218  A    between atoms: _574  and  _575
REMARK  219  A    between atoms: _574  and  _577
REMARK  220  A    between atoms: _577  and  _578
REMARK  221  A    between atoms: _581  and  _583
REMARK  222  A    between atoms: _583  and  _584
REMARK  223  A    between atoms: _583  and  _586
REMARK  224  A    between atoms: _586  and  _587
REMARK                            x       y       z     vdW  Elec       q    Type
REMARK                         _______ _______ _______ _____ _____    ______ ____
ROOT
ATOM      1  O   HOH     1      24.943  40.579  17.834  0.00  0.00    +0.000 OA
ENDROOT
TORSDOF 0
REMARK  Name = ../refined-set-2016/2j62/2j62_pocket.pdb
REMARK  224 active torsions:
REMARK  status: ('A' for Active; 'I' for Inactive)
REMARK    1  A    between atoms: _1  and  _3
REMARK    2  A    between atoms: _3  and  _4
REMARK    3  A    between atoms: _3  and  _6
REMARK    4  A    between atoms: _9  and  _11
REMARK    5  A    between atoms: _11  and  _12
REMARK    6  A    between atoms: _11  and  _14
REMARK    7  A    between atoms: _14  and  _15
REMARK    8  A    between atoms: _15  and  _16
REMARK    9  A    between atoms: _19  and  _21
REMARK   10  A    between atoms: _21  and  _22
REMARK   11  A    between atoms: _24  and  _26
REMARK   12  A    between atoms: _26  and  _27
REMARK   13  A    between atoms: _26  and  _29
REMARK   14  A    between atoms: _29  and  _30
REMARK   15  A    between atoms: _36  and  _38
REMARK   16  A    between atoms: _38  and  _39
REMARK   17  A    between atoms: _38  and  _41
REMARK   18  A    between atoms: _41  and  _42
REMARK   19  A    between atoms: _47  and  _48
REMARK   20  A    between atoms: _50  and  _52
REMARK   21  A    between atoms: _52  and  _53
REMARK   22  A    between atoms: _55  and  _57
REMARK   23  A    between atoms: _57  and  _58
REMARK   24  A    between atoms: _62  and  _63
REMARK   25  A    between atoms: _68  and  _70
REMARK   26  A    between atoms: _70  and  _71
REMARK   27  A    between atoms: _70  and  _73
REMARK   28  A    between atoms: _73  and  _74
REMARK   29  A    between atoms: _74  and  _75
REMARK   30  A    between atoms: _75  and  _76
REMARK   31  A    between atoms: _76  and  _77
REMARK   32  A    between atoms: _81  and  _83
REMARK   33  A    between atoms: _83  and  _84
REMARK   34  A    between atoms: _83  and  _86
REMARK   35  A    between atoms: _86  and  _87
REMARK   36  A    between atoms: _90  and  _92
REMARK   37  A    between atoms: _92  and  _93
REMARK   38  A    between atoms: _92  and  _95
REMARK   39  A    between atoms: _95  and  _96
REMARK   40  A    between atoms: _96  and  _97
REMARK   41  A    between atoms: _97  and  _98
REMARK   42  A    between atoms: _107  and  _109
REMARK   43  A    between atoms: _109  and  _110
REMARK   44  A    between atoms: _109  and  _112
REMARK   45  A    between atoms: _112  and  _113
REMARK   46  A    between atoms: _115  and  _117
REMARK   47  A    between atoms: _117  and  _118
REMARK   48  A    between atoms: _117  and  _120
REMARK   49  A    between atoms: _120  and  _121
REMARK   50  A    between atoms: _126  and  _127
REMARK   51  A    between atoms: _129  and  _131
REMARK   52  A    between atoms: _131  and  _132
REMARK   53  A    between atoms: _131  and  _134
REMARK   54  A    between atoms: _134  and  _135
REMARK   55  A    between atoms: _145  and  _147
REMARK   56  A    between atoms: _147  and  _148
REMARK   57  A    between atoms: _147  and  _150
REMARK   58  A    between atoms: _150  and  _151
REMARK   59  A    between atoms: _154  and  _156
REMARK   60  A    between atoms: _156  and  _157
REMARK   61  A    between atoms: _156  and  _159
REMARK   62  A    between atoms: _159  and  _160
REMARK   63  A    between atoms: _163  and  _165
REMARK   64  A    between atoms: _165  and  _166
REMARK   65  A    between atoms: _165  and  _168
REMARK   66  A    between atoms: _168  and  _169
REMARK   67  A    between atoms: _172  and  _174
REMARK   68  A    between atoms: _174  and  _175
REMARK   69  A    between atoms: _174  and  _177
REMARK   70  A    between atoms: _177  and  _178
REMARK   71  A    between atoms: _181  and  _183
REMARK   72  A    between atoms: _183  and  _184
REMARK   73  A    between atoms: _183  and  _186
REMARK   74  A    between atoms: _190  and  _191
REMARK   75  A    between atoms: _196  and  _198
REMARK   76  A    between atoms: _198  and  _199
REMARK   77  A    between atoms: _198  and  _201
REMARK   78  A    between atoms: _201  and  _202
REMARK   79  A    between atoms: _205  and  _207
REMARK   80  A    between atoms: _207  and  _208
REMARK   81  A    between atoms: _207  and  _210
REMARK   82  A    between atoms: _210  and  _211
REMARK   83  A    between atoms: _211  and  _212
REMARK   84  A    between atoms: _215  and  _217
REMARK   85  A    between atoms: _217  and  _218
REMARK   86  A    between atoms: _217  and  _220
REMARK   87  A    between atoms: _220  and  _221
REMARK   88  A    between atoms: _226  and  _227
REMARK   89  A    between atoms: _229  and  _231
REMARK   90  A    between atoms: _231  and  _232
REMARK   91  A    between atoms: _231  and  _234
REMARK   92  A    between atoms: _234  and  _235
REMARK   93  A    between atoms: _238  and  _240
REMARK   94  A    between atoms: _240  and  _241
REMARK   95  A    between atoms: _240  and  _243
REMARK   96  A    between atoms: _243  and  _244
REMARK   97  A    between atoms: _244  and  _245
REMARK   98  A    between atoms: _247  and  _249
REMARK   99  A    between atoms: _249  and  _250
REMARK  100  A    between atoms: _249  and  _252
REMARK  101  A    between atoms: _252  and  _253
REMARK  102  A    between atoms: _263  and  _265
REMARK  103  A    between atoms: _265  and  _266
REMARK  104  A    between atoms: _265  and  _268
REMARK  105  A    between atoms: _268  and  _269
REMARK  106  A    between atoms: _272  and  _274
REMARK  107  A    between atoms: _274  and  _275
REMARK  108  A    between atoms: _277  and  _279
REMARK  109  A    between atoms: _279  and  _280
REMARK  110  A    between atoms: _282  and  _284
REMARK  111  A    between atoms: _284  and  _285
REMARK  112  A    between atoms: _284  and  _287
REMARK  113  A    between atoms: _290  and  _292
REMARK  114  A    between atoms: _292  and  _293
REMARK  115  A    between atoms: _292  and  _295
REMARK  116  A    between atoms: _298  and  _300
REMARK  117  A    between atoms: _300  and  _301
REMARK  118  A    between atoms: _300  and  _303
REMARK  119  A    between atoms: _306  and  _308
REMARK  120  A    between atoms: _308  and  _309
REMARK  121  A    between atoms: _308  and  _311
REMARK  122  A    between atoms: _311  and  _312
REMARK  123  A    between atoms: _322  and  _324
REMARK  124  A    between atoms: _324  and  _325
REMARK  125  A    between atoms: _324  and  _327
REMARK  126  A    between atoms: _327  and  _328
REMARK  127  A    between atoms: _338  and  _340
REMARK  128  A    between atoms: _340  and  _341
REMARK  129  A    between atoms: _340  and  _343
REMARK  130  A    between atoms: _343  and  _344
REMARK  131  A    between atoms: _349  and  _351
REMARK  132  A    between atoms: _351  and  _352
REMARK  133  A    between atoms: _351  and  _354
REMARK  134  A    between atoms: _354  and  _355
REMARK  135  A    between atoms: _360  and  _361
REMARK  136  A    between atoms: _363  and  _365
REMARK  137  A    between atoms: _365  and  _366
REMARK  138  A    between atoms: _365  and  _368
REMARK  139  A    between atoms: _371  and  _373
REMARK  140  A    between atoms: _373  and  _374
REMARK  141  A    between atoms: _373  and  _376
REMARK  142  A    between atoms: _376  and  _377
REMARK  143  A    between atoms: _380  and  _382
REMARK  144  A    between atoms: _382  and  _383
REMARK  145  A    between atoms: _382  and  _385
REMARK  146  A    between atoms: _385  and  _386
REMARK  147  A    between atoms: _389  and  _391
REMARK  148  A    between atoms: _391  and  _392
REMARK  149  A    between atoms: _391  and  _394
REMARK  150  A    between atoms: _394  and  _395
REMARK  151  A    between atoms: _400  and  _401
REMARK  152  A    between atoms: _403  and  _405
REMARK  153  A    between atoms: _405  and  _406
REMARK  154  A    between atoms: _405  and  _408
REMARK  155  A    between atoms: _408  and  _409
REMARK  156  A    between atoms: _415  and  _417
REMARK  157  A    between atoms: _417  and  _418
REMARK  158  A    between atoms: _417  and  _420
REMARK  159  A    between atoms: _420  and  _421
REMARK  160  A    between atoms: _427  and  _428
REMARK  161  A    between atoms: _433  and  _435
REMARK  162  A    between atoms: _435  and  _436
REMARK  163  A    between atoms: _435  and  _438
REMARK  164  A    between atoms: _438  and  _439
REMARK  165  A    between atoms: _444  and  _446
REMARK  166  A    between atoms: _446  and  _447
REMARK  167  A    between atoms: _446  and  _449
REMARK  168  A    between atoms: _449  and  _450
REMARK  169  A    between atoms: _460  and  _462
REMARK  170  A    between atoms: _462  and  _463
REMARK  171  A    between atoms: _466  and  _468
REMARK  172  A    between atoms: _468  and  _469
REMARK  173  A    between atoms: _468  and  _471
REMARK  174  A    between atoms: _471  and  _472
REMARK  175  A    between atoms: _482  and  _484
REMARK  176  A    between atoms: _484  and  _485
REMARK  177  A    between atoms: _484  and  _487
REMARK  178  A    between atoms: _487  and  _488
REMARK  179  A    between atoms: _488  and  _489
REMARK  180  A    between atoms: _489  and  _490
REMARK  181  A    between atoms: _490  and  _491
REMARK  182  A    between atoms: _495  and  _497
REMARK  183  A    between atoms: _497  and  _498
REMARK  184  A    between atoms: _497  and  _500
REMARK  185  A    between atoms: _500  and  _501
REMARK  186  A    between atoms: _504  and  _506
REMARK  187  A    between atoms: _506  and  _507
REMARK  188  A    between atoms: _506  and  _509
REMARK  189  A    between atoms: _509  and  _510
REMARK  190  A    between atoms: _512  and  _514
REMARK  191  A    between atoms: _514  and  _515
REMARK  192  A    between atoms: _514  and  _517
REMARK  193  A    between atoms: _517  and  _518
REMARK  194  A    between atoms: _520  and  _522
REMARK  195  A    between atoms: _522  and  _523
REMARK  196  A    between atoms: _522  and  _525
REMARK  197  A    between atoms: _525  and  _526
REMARK  198  A    between atoms: _526  and  _527
REMARK  199  A    between atoms: _527  and  _528
REMARK  200  A    between atoms: _528  and  _529
REMARK  201  A    between atoms: _533  and  _535
REMARK  202  A    between atoms: _535  and  _536
REMARK  203  A    between atoms: _535  and  _538
REMARK  204  A    between atoms: _538  and  _539
REMARK  205  A    between atoms: _545  and  _547
REMARK  206  A    between atoms: _547  and  _548
REMARK  207  A    between atoms: _547  and  _550
REMARK  208  A    between atoms: _550  and  _551
REMARK  209  A    between atoms: _554  and  _556
REMARK  210  A    between atoms: _556  and  _557
REMARK  211  A    between atoms: _556  and  _559
REMARK  212  A    between atoms: _559  and  _560
REMARK  213  A    between atoms: _563  and  _565
REMARK  214  A    between atoms: _565  and  _566
REMARK  215  A    between atoms: _565  and  _568
REMARK  216  A    between atoms: _568  and  _569
REMARK  217  A    between atoms: _572  and  _574
REMARK  218  A    between atoms: _574  and  _575
REMARK  219  A    between atoms: _574  and  _577
REMARK  220  A    between atoms: _577  and  _578
REMARK  221  A    between atoms: _581  and  _583
REMARK  222  A    between atoms: _583  and  _584
REMARK  223  A    between atoms: _583  and  _586
REMARK  224  A    between atoms: _586  and  _587
REMARK                            x       y       z     vdW  Elec       q    Type
REMARK                         _______ _______ _______ _____ _____    ______ ____
ROOT
ATOM      1  O   HOH     1      26.316  45.339  14.232  0.00  0.00    +0.000 OA
ENDROOT
TORSDOF 0
