REMARK  Name = ../refined-set-2016/2igv/2igv_pocket.pdb
REMARK  108 active torsions:
REMARK  status: ('A' for Active; 'I' for Inactive)
REMARK    1  A    between atoms: _1  and  _3
REMARK    2  A    between atoms: _3  and  _4
REMARK    3  A    between atoms: _3  and  _6
REMARK    4  A    between atoms: _6  and  _7
REMARK    5  A    between atoms: _12  and  _14
REMARK    6  A    between atoms: _14  and  _15
REMARK    7  A    between atoms: _14  and  _17
REMARK    8  A    between atoms: _17  and  _18
REMARK    9  A    between atoms: _18  and  _19
REMARK   10  A    between atoms: _19  and  _20
REMARK   11  A    between atoms: _29  and  _31
REMARK   12  A    between atoms: _31  and  _32
REMARK   13  A    between atoms: _31  and  _34
REMARK   14  A    between atoms: _34  and  _35
REMARK   15  A    between atoms: _38  and  _40
REMARK   16  A    between atoms: _40  and  _41
REMARK   17  A    between atoms: _40  and  _43
REMARK   18  A    between atoms: _43  and  _44
REMARK   19  A    between atoms: _47  and  _49
REMARK   20  A    between atoms: _49  and  _50
REMARK   21  A    between atoms: _49  and  _52
REMARK   22  A    between atoms: _52  and  _53
REMARK   23  A    between atoms: _59  and  _61
REMARK   24  A    between atoms: _61  and  _62
REMARK   25  A    between atoms: _61  and  _64
REMARK   26  A    between atoms: _64  and  _65
REMARK   27  A    between atoms: _65  and  _66
REMARK   28  A    between atoms: _68  and  _70
REMARK   29  A    between atoms: _70  and  _71
REMARK   30  A    between atoms: _70  and  _73
REMARK   31  A    between atoms: _73  and  _74
REMARK   32  A    between atoms: _77  and  _79
REMARK   33  A    between atoms: _79  and  _80
REMARK   34  A    between atoms: _79  and  _82
REMARK   35  A    between atoms: _82  and  _83
REMARK   36  A    between atoms: _83  and  _84
REMARK   37  A    between atoms: _89  and  _91
REMARK   38  A    between atoms: _91  and  _92
REMARK   39  A    between atoms: _94  and  _96
REMARK   40  A    between atoms: _96  and  _97
REMARK   41  A    between atoms: _96  and  _99
REMARK   42  A    between atoms: _99  and  _100
REMARK   43  A    between atoms: _105  and  _107
REMARK   44  A    between atoms: _107  and  _108
REMARK   45  A    between atoms: _107  and  _110
REMARK   46  A    between atoms: _110  and  _111
REMARK   47  A    between atoms: _113  and  _115
REMARK   48  A    between atoms: _115  and  _116
REMARK   49  A    between atoms: _115  and  _118
REMARK   50  A    between atoms: _118  and  _119
REMARK   51  A    between atoms: _119  and  _120
REMARK   52  A    between atoms: _122  and  _124
REMARK   53  A    between atoms: _124  and  _125
REMARK   54  A    between atoms: _128  and  _130
REMARK   55  A    between atoms: _130  and  _131
REMARK   56  A    between atoms: _130  and  _133
REMARK   57  A    between atoms: _133  and  _134
REMARK   58  A    between atoms: _139  and  _141
REMARK   59  A    between atoms: _141  and  _142
REMARK   60  A    between atoms: _145  and  _147
REMARK   61  A    between atoms: _147  and  _148
REMARK   62  A    between atoms: _150  and  _152
REMARK   63  A    between atoms: _152  and  _153
REMARK   64  A    between atoms: _152  and  _155
REMARK   65  A    between atoms: _155  and  _156
REMARK   66  A    between atoms: _159  and  _161
REMARK   67  A    between atoms: _161  and  _162
REMARK   68  A    between atoms: _161  and  _164
REMARK   69  A    between atoms: _164  and  _165
REMARK   70  A    between atoms: _165  and  _166
REMARK   71  A    between atoms: _171  and  _173
REMARK   72  A    between atoms: _173  and  _174
REMARK   73  A    between atoms: _173  and  _176
REMARK   74  A    between atoms: _176  and  _177
REMARK   75  A    between atoms: _183  and  _185
REMARK   76  A    between atoms: _185  and  _186
REMARK   77  A    between atoms: _185  and  _188
REMARK   78  A    between atoms: _188  and  _189
REMARK   79  A    between atoms: _195  and  _197
REMARK   80  A    between atoms: _197  and  _198
REMARK   81  A    between atoms: _197  and  _200
REMARK   82  A    between atoms: _200  and  _201
REMARK   83  A    between atoms: _204  and  _206
REMARK   84  A    between atoms: _206  and  _207
REMARK   85  A    between atoms: _206  and  _209
REMARK   86  A    between atoms: _211  and  _213
REMARK   87  A    between atoms: _213  and  _214
REMARK   88  A    between atoms: _213  and  _216
REMARK   89  A    between atoms: _216  and  _217
REMARK   90  A    between atoms: _220  and  _222
REMARK   91  A    between atoms: _222  and  _223
REMARK   92  A    between atoms: _222  and  _225
REMARK   93  A    between atoms: _225  and  _226
REMARK   94  A    between atoms: _236  and  _238
REMARK   95  A    between atoms: _238  and  _239
REMARK   96  A    between atoms: _238  and  _241
REMARK   97  A    between atoms: _241  and  _242
REMARK   98  A    between atoms: _245  and  _247
REMARK   99  A    between atoms: _247  and  _248
REMARK  100  A    between atoms: _247  and  _250
REMARK  101  A    between atoms: _250  and  _251
REMARK  102  A    between atoms: _251  and  _252
REMARK  103  A    between atoms: _252  and  _253
REMARK  104  A    between atoms: _253  and  _254
REMARK  105  A    between atoms: _258  and  _260
REMARK  106  A    between atoms: _260  and  _261
REMARK  107  A    between atoms: _260  and  _263
REMARK  108  A    between atoms: _263  and  _264
REMARK                            x       y       z     vdW  Elec       q    Type
REMARK                         _______ _______ _______ _____ _____    ______ ____
ROOT
ATOM      1  CA  ARG A   2      44.341  22.062  20.791  0.00  0.00    +0.149 C 
ENDROOT
BRANCH   1   4
ATOM      2  C   HIS A   1      43.083  24.152  20.648  0.00  0.00    +0.239 C 
ATOM      3  O   HIS A   1      42.038  23.601  20.983  0.00  0.00    -0.274 OA
ATOM      4  N   ARG A   2      44.232  23.501  20.582  0.00  0.00    -0.297 N 
ATOM      5  H   ARG A   2      45.097  24.039  20.372  0.00  0.00    +0.150 HD
BRANCH   2   6
ATOM      6  CA  HIS A   1      43.093  25.634  20.270  0.00  0.00    +0.151 C 
BRANCH   6   7
ATOM      7  N   HIS A   1      44.424  26.215  20.211  0.00  0.00    -0.238 NA
ATOM      8  H   HIS A   1      44.913  26.294  19.297  0.00  0.00    +0.142 HD
ENDBRANCH   6   7
BRANCH   6   9
ATOM      9  CB  HIS A   1      42.332  25.784  18.925  0.00  0.00    +0.074 C 
BRANCH   9  10
ATOM     10  CG  HIS A   1      43.095  25.092  17.828  0.00  0.00    +0.082 A 
ATOM     11  CD2 HIS A   1      42.986  23.850  17.311  0.00  0.00    +0.115 A 
ATOM     12  NE2 HIS A   1      43.946  23.726  16.334  0.00  0.00    -0.221 NA
ATOM     13  CE1 HIS A   1      44.625  24.866  16.250  0.00  0.00    +0.199 A 
ATOM     14  ND1 HIS A   1      44.121  25.692  17.153  0.00  0.00    -0.227 NA
ENDBRANCH   9  10
ENDBRANCH   6   9
ENDBRANCH   2   6
ENDBRANCH   1   4
BRANCH   1  15
ATOM     15  C   ARG A   2      45.612  21.827  21.589  0.00  0.00    +0.241 C 
ATOM     16  N   ILE A   3      45.484  21.289  22.790  0.00  0.00    -0.297 N 
ATOM     17  H   ILE A   3      44.545  20.976  23.109  0.00  0.00    +0.150 HD
ATOM     18  O   ARG A   2      46.699  22.168  21.103  0.00  0.00    -0.273 OA
BRANCH  16  19
ATOM     19  CA  ILE A   3      46.636  21.124  23.683  0.00  0.00    +0.149 C 
BRANCH  19  20
ATOM     20  C   ILE A   3      46.586  19.734  24.309  0.00  0.00    +0.241 C 
ATOM     21  O   ILE A   3      45.582  19.461  24.979  0.00  0.00    -0.273 OA
ATOM     22  N   ILE A   4      47.590  18.923  24.052  0.00  0.00    -0.298 N 
ATOM     23  H   ILE A   4      48.404  19.252  23.495  0.00  0.00    +0.150 HD
BRANCH  22  24
ATOM     24  CA  ILE A   4      47.544  17.543  24.564  0.00  0.00    +0.137 C 
BRANCH  24  25
ATOM     25  C   ILE A   4      48.723  17.281  25.487  0.00  0.00    +0.227 C 
ATOM     26  O   ILE A   4      49.895  17.383  25.106  0.00  0.00    -0.286 OA
ENDBRANCH  24  25
BRANCH  24  27
ATOM     27  CB  ILE A   4      47.484  16.530  23.408  0.00  0.00    +0.026 C 
ATOM     28  CG2 ILE A   4      47.798  15.125  23.929  0.00  0.00    +0.002 C 
BRANCH  27  29
ATOM     29  CG1 ILE A   4      46.140  16.606  22.689  0.00  0.00    +0.002 C 
ATOM     30  CD1 ILE A   4      45.897  15.599  21.596  0.00  0.00    +0.000 C 
ENDBRANCH  27  29
ENDBRANCH  24  27
ENDBRANCH  22  24
ENDBRANCH  19  20
BRANCH  19  31
ATOM     31  CB  ILE A   3      46.626  22.193  24.782  0.00  0.00    +0.027 C 
ATOM     32  CG2 ILE A   3      47.835  22.016  25.714  0.00  0.00    +0.002 C 
BRANCH  31  33
ATOM     33  CG1 ILE A   3      46.568  23.628  24.243  0.00  0.00    +0.002 C 
ATOM     34  CD1 ILE A   3      46.237  24.651  25.322  0.00  0.00    +0.000 C 
ENDBRANCH  31  33
ENDBRANCH  19  31
ENDBRANCH  16  19
ENDBRANCH   1  15
BRANCH   1  35
ATOM     35  CB  ARG A   2      44.373  21.313  19.473  0.00  0.00    +0.033 C 
BRANCH  35  36
ATOM     36  CG  ARG A   2      44.642  19.829  19.573  0.00  0.00    +0.045 C 
BRANCH  36  37
ATOM     37  CD  ARG A   2      44.328  19.179  18.226  0.00  0.00    +0.174 C 
BRANCH  37  38
ATOM     38  NE  ARG A   2      44.786  17.802  18.174  0.00  0.00    -0.265 N 
ATOM     39  CZ  ARG A   2      44.112  16.759  18.643  0.00  0.00    +0.342 C 
ATOM     40  NH2 ARG A   2      42.918  16.918  19.226  0.00  0.00    -0.292 N 
ATOM     41 HH21 ARG A   2      42.402  16.091  19.589  0.00  0.00    +0.255 HD
ATOM     42 HH22 ARG A   2      42.506  17.869  19.317  0.00  0.00    +0.255 HD
ATOM     43  NH1 ARG A   2      44.645  15.550  18.526  0.00  0.00    -0.292 N 
ATOM     44 HH11 ARG A   2      44.134  14.719  18.887  0.00  0.00    +0.255 HD
ATOM     45 HH12 ARG A   2      45.574  15.433  18.074  0.00  0.00    +0.255 HD
ATOM     46  HE  ARG A   2      45.712  17.619  17.736  0.00  0.00    +0.259 HD
ENDBRANCH  37  38
ENDBRANCH  36  37
ENDBRANCH  35  36
ENDBRANCH   1  35
TORSDOF 18
REMARK  Name = ../refined-set-2016/2igv/2igv_pocket.pdb
REMARK  108 active torsions:
REMARK  status: ('A' for Active; 'I' for Inactive)
REMARK    1  A    between atoms: _1  and  _3
REMARK    2  A    between atoms: _3  and  _4
REMARK    3  A    between atoms: _3  and  _6
REMARK    4  A    between atoms: _6  and  _7
REMARK    5  A    between atoms: _12  and  _14
REMARK    6  A    between atoms: _14  and  _15
REMARK    7  A    between atoms: _14  and  _17
REMARK    8  A    between atoms: _17  and  _18
REMARK    9  A    between atoms: _18  and  _19
REMARK   10  A    between atoms: _19  and  _20
REMARK   11  A    between atoms: _29  and  _31
REMARK   12  A    between atoms: _31  and  _32
REMARK   13  A    between atoms: _31  and  _34
REMARK   14  A    between atoms: _34  and  _35
REMARK   15  A    between atoms: _38  and  _40
REMARK   16  A    between atoms: _40  and  _41
REMARK   17  A    between atoms: _40  and  _43
REMARK   18  A    between atoms: _43  and  _44
REMARK   19  A    between atoms: _47  and  _49
REMARK   20  A    between atoms: _49  and  _50
REMARK   21  A    between atoms: _49  and  _52
REMARK   22  A    between atoms: _52  and  _53
REMARK   23  A    between atoms: _59  and  _61
REMARK   24  A    between atoms: _61  and  _62
REMARK   25  A    between atoms: _61  and  _64
REMARK   26  A    between atoms: _64  and  _65
REMARK   27  A    between atoms: _65  and  _66
REMARK   28  A    between atoms: _68  and  _70
REMARK   29  A    between atoms: _70  and  _71
REMARK   30  A    between atoms: _70  and  _73
REMARK   31  A    between atoms: _73  and  _74
REMARK   32  A    between atoms: _77  and  _79
REMARK   33  A    between atoms: _79  and  _80
REMARK   34  A    between atoms: _79  and  _82
REMARK   35  A    between atoms: _82  and  _83
REMARK   36  A    between atoms: _83  and  _84
REMARK   37  A    between atoms: _89  and  _91
REMARK   38  A    between atoms: _91  and  _92
REMARK   39  A    between atoms: _94  and  _96
REMARK   40  A    between atoms: _96  and  _97
REMARK   41  A    between atoms: _96  and  _99
REMARK   42  A    between atoms: _99  and  _100
REMARK   43  A    between atoms: _105  and  _107
REMARK   44  A    between atoms: _107  and  _108
REMARK   45  A    between atoms: _107  and  _110
REMARK   46  A    between atoms: _110  and  _111
REMARK   47  A    between atoms: _113  and  _115
REMARK   48  A    between atoms: _115  and  _116
REMARK   49  A    between atoms: _115  and  _118
REMARK   50  A    between atoms: _118  and  _119
REMARK   51  A    between atoms: _119  and  _120
REMARK   52  A    between atoms: _122  and  _124
REMARK   53  A    between atoms: _124  and  _125
REMARK   54  A    between atoms: _128  and  _130
REMARK   55  A    between atoms: _130  and  _131
REMARK   56  A    between atoms: _130  and  _133
REMARK   57  A    between atoms: _133  and  _134
REMARK   58  A    between atoms: _139  and  _141
REMARK   59  A    between atoms: _141  and  _142
REMARK   60  A    between atoms: _145  and  _147
REMARK   61  A    between atoms: _147  and  _148
REMARK   62  A    between atoms: _150  and  _152
REMARK   63  A    between atoms: _152  and  _153
REMARK   64  A    between atoms: _152  and  _155
REMARK   65  A    between atoms: _155  and  _156
REMARK   66  A    between atoms: _159  and  _161
REMARK   67  A    between atoms: _161  and  _162
REMARK   68  A    between atoms: _161  and  _164
REMARK   69  A    between atoms: _164  and  _165
REMARK   70  A    between atoms: _165  and  _166
REMARK   71  A    between atoms: _171  and  _173
REMARK   72  A    between atoms: _173  and  _174
REMARK   73  A    between atoms: _173  and  _176
REMARK   74  A    between atoms: _176  and  _177
REMARK   75  A    between atoms: _183  and  _185
REMARK   76  A    between atoms: _185  and  _186
REMARK   77  A    between atoms: _185  and  _188
REMARK   78  A    between atoms: _188  and  _189
REMARK   79  A    between atoms: _195  and  _197
REMARK   80  A    between atoms: _197  and  _198
REMARK   81  A    between atoms: _197  and  _200
REMARK   82  A    between atoms: _200  and  _201
REMARK   83  A    between atoms: _204  and  _206
REMARK   84  A    between atoms: _206  and  _207
REMARK   85  A    between atoms: _206  and  _209
REMARK   86  A    between atoms: _211  and  _213
REMARK   87  A    between atoms: _213  and  _214
REMARK   88  A    between atoms: _213  and  _216
REMARK   89  A    between atoms: _216  and  _217
REMARK   90  A    between atoms: _220  and  _222
REMARK   91  A    between atoms: _222  and  _223
REMARK   92  A    between atoms: _222  and  _225
REMARK   93  A    between atoms: _225  and  _226
REMARK   94  A    between atoms: _236  and  _238
REMARK   95  A    between atoms: _238  and  _239
REMARK   96  A    between atoms: _238  and  _241
REMARK   97  A    between atoms: _241  and  _242
REMARK   98  A    between atoms: _245  and  _247
REMARK   99  A    between atoms: _247  and  _248
REMARK  100  A    between atoms: _247  and  _250
REMARK  101  A    between atoms: _250  and  _251
REMARK  102  A    between atoms: _251  and  _252
REMARK  103  A    between atoms: _252  and  _253
REMARK  104  A    between atoms: _253  and  _254
REMARK  105  A    between atoms: _258  and  _260
REMARK  106  A    between atoms: _260  and  _261
REMARK  107  A    between atoms: _260  and  _263
REMARK  108  A    between atoms: _263  and  _264
REMARK                            x       y       z     vdW  Elec       q    Type
REMARK                         _______ _______ _______ _____ _____    ______ ____
ROOT
ATOM      1  C   MET A   2      51.152  20.172  22.170  0.00  0.00    +0.241 C 
ATOM      2  O   MET A   2      50.072  19.861  22.682  0.00  0.00    -0.273 OA
ATOM      3  N   ILE A   3      51.449  21.418  21.836  0.00  0.00    -0.297 N 
ATOM      4  H   ILE A   3      52.412  21.624  21.502  0.00  0.00    +0.150 HD
ENDROOT
BRANCH   3   5
ATOM      5  CA  ILE A   3      50.494  22.514  21.913  0.00  0.00    +0.149 C 
BRANCH   5   6
ATOM      6  C   ILE A   3      50.331  23.033  20.486  0.00  0.00    +0.241 C 
ATOM      7  N   GLN A   4      49.099  23.317  20.117  0.00  0.00    -0.298 N 
ATOM      8  H   GLN A   4      48.329  23.331  20.816  0.00  0.00    +0.150 HD
ATOM      9  O   ILE A   3      51.356  23.103  19.793  0.00  0.00    -0.273 OA
BRANCH   7  10
ATOM     10  CA  GLN A   4      48.828  23.614  18.699  0.00  0.00    +0.137 C 
BRANCH  10  11
ATOM     11  C   GLN A   4      47.985  24.855  18.520  0.00  0.00    +0.227 C 
ATOM     12  O   GLN A   4      47.000  25.084  19.211  0.00  0.00    -0.286 OA
ENDBRANCH  10  11
BRANCH  10  13
ATOM     13  CB  GLN A   4      48.145  22.378  18.097  0.00  0.00    +0.037 C 
BRANCH  13  14
ATOM     14  CG  GLN A   4      47.829  22.506  16.610  0.00  0.00    +0.087 C 
BRANCH  14  15
ATOM     15  CD  GLN A   4      47.251  21.198  16.058  0.00  0.00    +0.219 C 
ATOM     16  NE2 GLN A   4      47.914  20.083  16.324  0.00  0.00    -0.329 N 
ATOM     17 HE21 GLN A   4      48.795  20.121  16.876  0.00  0.00    +0.145 HD
ATOM     18 HE22 GLN A   4      47.554  19.170  15.981  0.00  0.00    +0.145 HD
ATOM     19  OE1 GLN A   4      46.202  21.234  15.411  0.00  0.00    -0.275 OA
ENDBRANCH  14  15
ENDBRANCH  13  14
ENDBRANCH  10  13
ENDBRANCH   7  10
ENDBRANCH   5   6
BRANCH   5  20
ATOM     20  CB  ILE A   3      50.919  23.632  22.881  0.00  0.00    +0.027 C 
ATOM     21  CG2 ILE A   3      51.219  22.995  24.243  0.00  0.00    +0.002 C 
BRANCH  20  22
ATOM     22  CG1 ILE A   3      52.100  24.501  22.443  0.00  0.00    +0.002 C 
ATOM     23  CD1 ILE A   3      52.414  25.648  23.402  0.00  0.00    +0.000 C 
ENDBRANCH  20  22
ENDBRANCH   5  20
ENDBRANCH   3   5
BRANCH   1  24
ATOM     24  CA  MET A   2      52.239  19.139  21.910  0.00  0.00    +0.149 C 
BRANCH  24  26
ATOM     25  C   PHE A   1      52.921  16.978  22.718  0.00  0.00    +0.239 C 
ATOM     26  N   MET A   2      51.942  17.866  22.594  0.00  0.00    -0.297 N 
ATOM     27  H   MET A   2      50.992  17.670  22.969  0.00  0.00    +0.150 HD
ATOM     28  O   PHE A   1      54.091  17.142  22.305  0.00  0.00    -0.274 OA
BRANCH  25  29
ATOM     29  CA  PHE A   1      52.579  15.626  23.349  0.00  0.00    +0.149 C 
BRANCH  29  30
ATOM     30  N   PHE A   1      52.542  15.735  24.816  0.00  0.00    -0.238 NA
ATOM     31  H   PHE A   1      52.254  16.625  25.271  0.00  0.00    +0.142 HD
ENDBRANCH  29  30
BRANCH  29  32
ATOM     32  CB  PHE A   1      51.276  15.103  22.771  0.00  0.00    +0.053 C 
BRANCH  32  33
ATOM     33  CG  PHE A   1      51.219  14.772  21.281  0.00  0.00    -0.020 A 
ATOM     34  CD2 PHE A   1      49.993  14.489  20.716  0.00  0.00    -0.004 A 
ATOM     35  CE2 PHE A   1      49.836  14.194  19.369  0.00  0.00    -0.000 A 
ATOM     36  CZ  PHE A   1      50.946  14.172  18.554  0.00  0.00    -0.000 A 
ATOM     37  CE1 PHE A   1      52.188  14.437  19.093  0.00  0.00    -0.000 A 
ATOM     38  CD1 PHE A   1      52.310  14.728  20.427  0.00  0.00    -0.004 A 
ENDBRANCH  32  33
ENDBRANCH  29  32
ENDBRANCH  25  29
ENDBRANCH  24  26
BRANCH  24  39
ATOM     39  CB  MET A   2      52.429  18.907  20.411  0.00  0.00    +0.041 C 
BRANCH  39  40
ATOM     40  CG  MET A   2      51.232  18.276  19.715  0.00  0.00    +0.060 C 
BRANCH  40  41
ATOM     41  SD  MET A   2      49.921  19.410  19.266  0.00  0.00    -0.139 S 
ATOM     42  CE  MET A   2      48.433  18.519  19.731  0.00  0.00    +0.069 C 
ENDBRANCH  40  41
ENDBRANCH  39  40
ENDBRANCH  24  39
ENDBRANCH   1  24
TORSDOF 18
REMARK  Name = ../refined-set-2016/2igv/2igv_pocket.pdb
REMARK  108 active torsions:
REMARK  status: ('A' for Active; 'I' for Inactive)
REMARK    1  A    between atoms: _1  and  _3
REMARK    2  A    between atoms: _3  and  _4
REMARK    3  A    between atoms: _3  and  _6
REMARK    4  A    between atoms: _6  and  _7
REMARK    5  A    between atoms: _12  and  _14
REMARK    6  A    between atoms: _14  and  _15
REMARK    7  A    between atoms: _14  and  _17
REMARK    8  A    between atoms: _17  and  _18
REMARK    9  A    between atoms: _18  and  _19
REMARK   10  A    between atoms: _19  and  _20
REMARK   11  A    between atoms: _29  and  _31
REMARK   12  A    between atoms: _31  and  _32
REMARK   13  A    between atoms: _31  and  _34
REMARK   14  A    between atoms: _34  and  _35
REMARK   15  A    between atoms: _38  and  _40
REMARK   16  A    between atoms: _40  and  _41
REMARK   17  A    between atoms: _40  and  _43
REMARK   18  A    between atoms: _43  and  _44
REMARK   19  A    between atoms: _47  and  _49
REMARK   20  A    between atoms: _49  and  _50
REMARK   21  A    between atoms: _49  and  _52
REMARK   22  A    between atoms: _52  and  _53
REMARK   23  A    between atoms: _59  and  _61
REMARK   24  A    between atoms: _61  and  _62
REMARK   25  A    between atoms: _61  and  _64
REMARK   26  A    between atoms: _64  and  _65
REMARK   27  A    between atoms: _65  and  _66
REMARK   28  A    between atoms: _68  and  _70
REMARK   29  A    between atoms: _70  and  _71
REMARK   30  A    between atoms: _70  and  _73
REMARK   31  A    between atoms: _73  and  _74
REMARK   32  A    between atoms: _77  and  _79
REMARK   33  A    between atoms: _79  and  _80
REMARK   34  A    between atoms: _79  and  _82
REMARK   35  A    between atoms: _82  and  _83
REMARK   36  A    between atoms: _83  and  _84
REMARK   37  A    between atoms: _89  and  _91
REMARK   38  A    between atoms: _91  and  _92
REMARK   39  A    between atoms: _94  and  _96
REMARK   40  A    between atoms: _96  and  _97
REMARK   41  A    between atoms: _96  and  _99
REMARK   42  A    between atoms: _99  and  _100
REMARK   43  A    between atoms: _105  and  _107
REMARK   44  A    between atoms: _107  and  _108
REMARK   45  A    between atoms: _107  and  _110
REMARK   46  A    between atoms: _110  and  _111
REMARK   47  A    between atoms: _113  and  _115
REMARK   48  A    between atoms: _115  and  _116
REMARK   49  A    between atoms: _115  and  _118
REMARK   50  A    between atoms: _118  and  _119
REMARK   51  A    between atoms: _119  and  _120
REMARK   52  A    between atoms: _122  and  _124
REMARK   53  A    between atoms: _124  and  _125
REMARK   54  A    between atoms: _128  and  _130
REMARK   55  A    between atoms: _130  and  _131
REMARK   56  A    between atoms: _130  and  _133
REMARK   57  A    between atoms: _133  and  _134
REMARK   58  A    between atoms: _139  and  _141
REMARK   59  A    between atoms: _141  and  _142
REMARK   60  A    between atoms: _145  and  _147
REMARK   61  A    between atoms: _147  and  _148
REMARK   62  A    between atoms: _150  and  _152
REMARK   63  A    between atoms: _152  and  _153
REMARK   64  A    between atoms: _152  and  _155
REMARK   65  A    between atoms: _155  and  _156
REMARK   66  A    between atoms: _159  and  _161
REMARK   67  A    between atoms: _161  and  _162
REMARK   68  A    between atoms: _161  and  _164
REMARK   69  A    between atoms: _164  and  _165
REMARK   70  A    between atoms: _165  and  _166
REMARK   71  A    between atoms: _171  and  _173
REMARK   72  A    between atoms: _173  and  _174
REMARK   73  A    between atoms: _173  and  _176
REMARK   74  A    between atoms: _176  and  _177
REMARK   75  A    between atoms: _183  and  _185
REMARK   76  A    between atoms: _185  and  _186
REMARK   77  A    between atoms: _185  and  _188
REMARK   78  A    between atoms: _188  and  _189
REMARK   79  A    between atoms: _195  and  _197
REMARK   80  A    between atoms: _197  and  _198
REMARK   81  A    between atoms: _197  and  _200
REMARK   82  A    between atoms: _200  and  _201
REMARK   83  A    between atoms: _204  and  _206
REMARK   84  A    between atoms: _206  and  _207
REMARK   85  A    between atoms: _206  and  _209
REMARK   86  A    between atoms: _211  and  _213
REMARK   87  A    between atoms: _213  and  _214
REMARK   88  A    between atoms: _213  and  _216
REMARK   89  A    between atoms: _216  and  _217
REMARK   90  A    between atoms: _220  and  _222
REMARK   91  A    between atoms: _222  and  _223
REMARK   92  A    between atoms: _222  and  _225
REMARK   93  A    between atoms: _225  and  _226
REMARK   94  A    between atoms: _236  and  _238
REMARK   95  A    between atoms: _238  and  _239
REMARK   96  A    between atoms: _238  and  _241
REMARK   97  A    between atoms: _241  and  _242
REMARK   98  A    between atoms: _245  and  _247
REMARK   99  A    between atoms: _247  and  _248
REMARK  100  A    between atoms: _247  and  _250
REMARK  101  A    between atoms: _250  and  _251
REMARK  102  A    between atoms: _251  and  _252
REMARK  103  A    between atoms: _252  and  _253
REMARK  104  A    between atoms: _253  and  _254
REMARK  105  A    between atoms: _258  and  _260
REMARK  106  A    between atoms: _260  and  _261
REMARK  107  A    between atoms: _260  and  _263
REMARK  108  A    between atoms: _263  and  _264
REMARK                            x       y       z     vdW  Elec       q    Type
REMARK                         _______ _______ _______ _____ _____    ______ ____
ROOT
ATOM      1  CA  GLY A   1      41.343  23.756  14.066  0.00  0.00    +0.156 C 
ENDROOT
BRANCH   1   2
ATOM      2  N   GLY A   1      40.629  24.847  14.717  0.00  0.00    -0.238 NA
ATOM      3  H   GLY A   1      40.851  25.844  14.524  0.00  0.00    +0.142 HD
ENDBRANCH   1   2
BRANCH   1   4
ATOM      4  C   GLY A   1      40.813  23.507  12.670  0.00  0.00    +0.226 C 
ATOM      5  O   GLY A   1      41.432  22.828  11.866  0.00  0.00    -0.287 OA
ENDBRANCH   1   4
TORSDOF 2
REMARK  Name = ../refined-set-2016/2igv/2igv_pocket.pdb
REMARK  108 active torsions:
REMARK  status: ('A' for Active; 'I' for Inactive)
REMARK    1  A    between atoms: _1  and  _3
REMARK    2  A    between atoms: _3  and  _4
REMARK    3  A    between atoms: _3  and  _6
REMARK    4  A    between atoms: _6  and  _7
REMARK    5  A    between atoms: _12  and  _14
REMARK    6  A    between atoms: _14  and  _15
REMARK    7  A    between atoms: _14  and  _17
REMARK    8  A    between atoms: _17  and  _18
REMARK    9  A    between atoms: _18  and  _19
REMARK   10  A    between atoms: _19  and  _20
REMARK   11  A    between atoms: _29  and  _31
REMARK   12  A    between atoms: _31  and  _32
REMARK   13  A    between atoms: _31  and  _34
REMARK   14  A    between atoms: _34  and  _35
REMARK   15  A    between atoms: _38  and  _40
REMARK   16  A    between atoms: _40  and  _41
REMARK   17  A    between atoms: _40  and  _43
REMARK   18  A    between atoms: _43  and  _44
REMARK   19  A    between atoms: _47  and  _49
REMARK   20  A    between atoms: _49  and  _50
REMARK   21  A    between atoms: _49  and  _52
REMARK   22  A    between atoms: _52  and  _53
REMARK   23  A    between atoms: _59  and  _61
REMARK   24  A    between atoms: _61  and  _62
REMARK   25  A    between atoms: _61  and  _64
REMARK   26  A    between atoms: _64  and  _65
REMARK   27  A    between atoms: _65  and  _66
REMARK   28  A    between atoms: _68  and  _70
REMARK   29  A    between atoms: _70  and  _71
REMARK   30  A    between atoms: _70  and  _73
REMARK   31  A    between atoms: _73  and  _74
REMARK   32  A    between atoms: _77  and  _79
REMARK   33  A    between atoms: _79  and  _80
REMARK   34  A    between atoms: _79  and  _82
REMARK   35  A    between atoms: _82  and  _83
REMARK   36  A    between atoms: _83  and  _84
REMARK   37  A    between atoms: _89  and  _91
REMARK   38  A    between atoms: _91  and  _92
REMARK   39  A    between atoms: _94  and  _96
REMARK   40  A    between atoms: _96  and  _97
REMARK   41  A    between atoms: _96  and  _99
REMARK   42  A    between atoms: _99  and  _100
REMARK   43  A    between atoms: _105  and  _107
REMARK   44  A    between atoms: _107  and  _108
REMARK   45  A    between atoms: _107  and  _110
REMARK   46  A    between atoms: _110  and  _111
REMARK   47  A    between atoms: _113  and  _115
REMARK   48  A    between atoms: _115  and  _116
REMARK   49  A    between atoms: _115  and  _118
REMARK   50  A    between atoms: _118  and  _119
REMARK   51  A    between atoms: _119  and  _120
REMARK   52  A    between atoms: _122  and  _124
REMARK   53  A    between atoms: _124  and  _125
REMARK   54  A    between atoms: _128  and  _130
REMARK   55  A    between atoms: _130  and  _131
REMARK   56  A    between atoms: _130  and  _133
REMARK   57  A    between atoms: _133  and  _134
REMARK   58  A    between atoms: _139  and  _141
REMARK   59  A    between atoms: _141  and  _142
REMARK   60  A    between atoms: _145  and  _147
REMARK   61  A    between atoms: _147  and  _148
REMARK   62  A    between atoms: _150  and  _152
REMARK   63  A    between atoms: _152  and  _153
REMARK   64  A    between atoms: _152  and  _155
REMARK   65  A    between atoms: _155  and  _156
REMARK   66  A    between atoms: _159  and  _161
REMARK   67  A    between atoms: _161  and  _162
REMARK   68  A    between atoms: _161  and  _164
REMARK   69  A    between atoms: _164  and  _165
REMARK   70  A    between atoms: _165  and  _166
REMARK   71  A    between atoms: _171  and  _173
REMARK   72  A    between atoms: _173  and  _174
REMARK   73  A    between atoms: _173  and  _176
REMARK   74  A    between atoms: _176  and  _177
REMARK   75  A    between atoms: _183  and  _185
REMARK   76  A    between atoms: _185  and  _186
REMARK   77  A    between atoms: _185  and  _188
REMARK   78  A    between atoms: _188  and  _189
REMARK   79  A    between atoms: _195  and  _197
REMARK   80  A    between atoms: _197  and  _198
REMARK   81  A    between atoms: _197  and  _200
REMARK   82  A    between atoms: _200  and  _201
REMARK   83  A    between atoms: _204  and  _206
REMARK   84  A    between atoms: _206  and  _207
REMARK   85  A    between atoms: _206  and  _209
REMARK   86  A    between atoms: _211  and  _213
REMARK   87  A    between atoms: _213  and  _214
REMARK   88  A    between atoms: _213  and  _216
REMARK   89  A    between atoms: _216  and  _217
REMARK   90  A    between atoms: _220  and  _222
REMARK   91  A    between atoms: _222  and  _223
REMARK   92  A    between atoms: _222  and  _225
REMARK   93  A    between atoms: _225  and  _226
REMARK   94  A    between atoms: _236  and  _238
REMARK   95  A    between atoms: _238  and  _239
REMARK   96  A    between atoms: _238  and  _241
REMARK   97  A    between atoms: _241  and  _242
REMARK   98  A    between atoms: _245  and  _247
REMARK   99  A    between atoms: _247  and  _248
REMARK  100  A    between atoms: _247  and  _250
REMARK  101  A    between atoms: _250  and  _251
REMARK  102  A    between atoms: _251  and  _252
REMARK  103  A    between atoms: _252  and  _253
REMARK  104  A    between atoms: _253  and  _254
REMARK  105  A    between atoms: _258  and  _260
REMARK  106  A    between atoms: _260  and  _261
REMARK  107  A    between atoms: _260  and  _263
REMARK  108  A    between atoms: _263  and  _264
REMARK                            x       y       z     vdW  Elec       q    Type
REMARK                         _______ _______ _______ _____ _____    ______ ____
ROOT
ATOM      1  CB  HIS A   1      59.405  15.282  15.618  0.00  0.00    +0.072 C 
ENDROOT
BRANCH   1   2
ATOM      2  CG  HIS A   1      58.512  15.838  14.547  0.00  0.00    +0.082 A 
ATOM      3  CD2 HIS A   1      57.617  16.856  14.586  0.00  0.00    +0.115 A 
ATOM      4  NE2 HIS A   1      57.052  16.969  13.341  0.00  0.00    -0.221 NA
ATOM      5  CE1 HIS A   1      57.580  16.042  12.552  0.00  0.00    +0.199 A 
ATOM      6  ND1 HIS A   1      58.468  15.349  13.258  0.00  0.00    -0.227 NA
ENDBRANCH   1   2
BRANCH   1   7
ATOM      7  CA  HIS A   1      60.850  15.743  15.569  0.00  0.00    +0.139 C 
BRANCH   7   8
ATOM      8  N   HIS A   1      61.431  15.433  14.249  0.00  0.00    -0.239 NA
ATOM      9  H   HIS A   1      61.061  14.639  13.689  0.00  0.00    +0.142 HD
ENDBRANCH   7   8
BRANCH   7  10
ATOM     10  C   HIS A   1      61.692  15.069  16.660  0.00  0.00    +0.224 C 
ATOM     11  O   HIS A   1      61.355  13.948  17.034  0.00  0.00    -0.287 OA
ENDBRANCH   7  10
ENDBRANCH   1   7
TORSDOF 4
REMARK  Name = ../refined-set-2016/2igv/2igv_pocket.pdb
REMARK  108 active torsions:
REMARK  status: ('A' for Active; 'I' for Inactive)
REMARK    1  A    between atoms: _1  and  _3
REMARK    2  A    between atoms: _3  and  _4
REMARK    3  A    between atoms: _3  and  _6
REMARK    4  A    between atoms: _6  and  _7
REMARK    5  A    between atoms: _12  and  _14
REMARK    6  A    between atoms: _14  and  _15
REMARK    7  A    between atoms: _14  and  _17
REMARK    8  A    between atoms: _17  and  _18
REMARK    9  A    between atoms: _18  and  _19
REMARK   10  A    between atoms: _19  and  _20
REMARK   11  A    between atoms: _29  and  _31
REMARK   12  A    between atoms: _31  and  _32
REMARK   13  A    between atoms: _31  and  _34
REMARK   14  A    between atoms: _34  and  _35
REMARK   15  A    between atoms: _38  and  _40
REMARK   16  A    between atoms: _40  and  _41
REMARK   17  A    between atoms: _40  and  _43
REMARK   18  A    between atoms: _43  and  _44
REMARK   19  A    between atoms: _47  and  _49
REMARK   20  A    between atoms: _49  and  _50
REMARK   21  A    between atoms: _49  and  _52
REMARK   22  A    between atoms: _52  and  _53
REMARK   23  A    between atoms: _59  and  _61
REMARK   24  A    between atoms: _61  and  _62
REMARK   25  A    between atoms: _61  and  _64
REMARK   26  A    between atoms: _64  and  _65
REMARK   27  A    between atoms: _65  and  _66
REMARK   28  A    between atoms: _68  and  _70
REMARK   29  A    between atoms: _70  and  _71
REMARK   30  A    between atoms: _70  and  _73
REMARK   31  A    between atoms: _73  and  _74
REMARK   32  A    between atoms: _77  and  _79
REMARK   33  A    between atoms: _79  and  _80
REMARK   34  A    between atoms: _79  and  _82
REMARK   35  A    between atoms: _82  and  _83
REMARK   36  A    between atoms: _83  and  _84
REMARK   37  A    between atoms: _89  and  _91
REMARK   38  A    between atoms: _91  and  _92
REMARK   39  A    between atoms: _94  and  _96
REMARK   40  A    between atoms: _96  and  _97
REMARK   41  A    between atoms: _96  and  _99
REMARK   42  A    between atoms: _99  and  _100
REMARK   43  A    between atoms: _105  and  _107
REMARK   44  A    between atoms: _107  and  _108
REMARK   45  A    between atoms: _107  and  _110
REMARK   46  A    between atoms: _110  and  _111
REMARK   47  A    between atoms: _113  and  _115
REMARK   48  A    between atoms: _115  and  _116
REMARK   49  A    between atoms: _115  and  _118
REMARK   50  A    between atoms: _118  and  _119
REMARK   51  A    between atoms: _119  and  _120
REMARK   52  A    between atoms: _122  and  _124
REMARK   53  A    between atoms: _124  and  _125
REMARK   54  A    between atoms: _128  and  _130
REMARK   55  A    between atoms: _130  and  _131
REMARK   56  A    between atoms: _130  and  _133
REMARK   57  A    between atoms: _133  and  _134
REMARK   58  A    between atoms: _139  and  _141
REMARK   59  A    between atoms: _141  and  _142
REMARK   60  A    between atoms: _145  and  _147
REMARK   61  A    between atoms: _147  and  _148
REMARK   62  A    between atoms: _150  and  _152
REMARK   63  A    between atoms: _152  and  _153
REMARK   64  A    between atoms: _152  and  _155
REMARK   65  A    between atoms: _155  and  _156
REMARK   66  A    between atoms: _159  and  _161
REMARK   67  A    between atoms: _161  and  _162
REMARK   68  A    between atoms: _161  and  _164
REMARK   69  A    between atoms: _164  and  _165
REMARK   70  A    between atoms: _165  and  _166
REMARK   71  A    between atoms: _171  and  _173
REMARK   72  A    between atoms: _173  and  _174
REMARK   73  A    between atoms: _173  and  _176
REMARK   74  A    between atoms: _176  and  _177
REMARK   75  A    between atoms: _183  and  _185
REMARK   76  A    between atoms: _185  and  _186
REMARK   77  A    between atoms: _185  and  _188
REMARK   78  A    between atoms: _188  and  _189
REMARK   79  A    between atoms: _195  and  _197
REMARK   80  A    between atoms: _197  and  _198
REMARK   81  A    between atoms: _197  and  _200
REMARK   82  A    between atoms: _200  and  _201
REMARK   83  A    between atoms: _204  and  _206
REMARK   84  A    between atoms: _206  and  _207
REMARK   85  A    between atoms: _206  and  _209
REMARK   86  A    between atoms: _211  and  _213
REMARK   87  A    between atoms: _213  and  _214
REMARK   88  A    between atoms: _213  and  _216
REMARK   89  A    between atoms: _216  and  _217
REMARK   90  A    between atoms: _220  and  _222
REMARK   91  A    between atoms: _222  and  _223
REMARK   92  A    between atoms: _222  and  _225
REMARK   93  A    between atoms: _225  and  _226
REMARK   94  A    between atoms: _236  and  _238
REMARK   95  A    between atoms: _238  and  _239
REMARK   96  A    between atoms: _238  and  _241
REMARK   97  A    between atoms: _241  and  _242
REMARK   98  A    between atoms: _245  and  _247
REMARK   99  A    between atoms: _247  and  _248
REMARK  100  A    between atoms: _247  and  _250
REMARK  101  A    between atoms: _250  and  _251
REMARK  102  A    between atoms: _251  and  _252
REMARK  103  A    between atoms: _252  and  _253
REMARK  104  A    between atoms: _253  and  _254
REMARK  105  A    between atoms: _258  and  _260
REMARK  106  A    between atoms: _260  and  _261
REMARK  107  A    between atoms: _260  and  _263
REMARK  108  A    between atoms: _263  and  _264
REMARK                            x       y       z     vdW  Elec       q    Type
REMARK                         _______ _______ _______ _____ _____    ______ ____
ROOT
ATOM      1  C   ALA A   3      49.421  20.801  10.109  0.00  0.00    +0.241 C 
ATOM      2  N   ASN A   4      48.652  19.747   9.860  0.00  0.00    -0.297 N 
ATOM      3  H   ASN A   4      48.466  19.027  10.587  0.00  0.00    +0.150 HD
ATOM      4  O   ALA A   3      49.727  21.668   9.281  0.00  0.00    -0.273 OA
ENDROOT
BRANCH   1   5
ATOM      5  CA  ALA A   3      49.989  20.968  11.520  0.00  0.00    +0.149 C 
ATOM      6  CB  ALA A   3      48.928  21.580  12.423  0.00  0.00    +0.031 C 
BRANCH   5   8
ATOM      7  C   MET A   2      52.297  21.333  10.937  0.00  0.00    +0.241 C 
ATOM      8  N   ALA A   3      51.176  21.819  11.477  0.00  0.00    -0.297 N 
ATOM      9  H   ALA A   3      51.149  22.786  11.860  0.00  0.00    +0.150 HD
ATOM     10  O   MET A   2      52.473  20.151  10.642  0.00  0.00    -0.273 OA
BRANCH   7  11
ATOM     11  CA  MET A   2      53.378  22.379  10.686  0.00  0.00    +0.149 C 
BRANCH  11  14
ATOM     12  C   SER A   1      54.938  22.290  12.557  0.00  0.00    +0.241 C 
ATOM     13  O   SER A   1      54.075  22.797  13.281  0.00  0.00    -0.274 OA
ATOM     14  N   MET A   2      54.650  22.010  11.284  0.00  0.00    -0.297 N 
ATOM     15  H   MET A   2      55.356  21.514  10.704  0.00  0.00    +0.150 HD
BRANCH  12  16
ATOM     16  CA  SER A   1      56.321  21.939  13.070  0.00  0.00    +0.174 C 
BRANCH  16  17
ATOM     17  N   SER A   1      56.682  22.757  14.250  0.00  0.00    -0.236 NA
ATOM     18  H   SER A   1      55.939  23.056  14.913  0.00  0.00    +0.142 HD
ENDBRANCH  16  17
BRANCH  16  19
ATOM     19  CB  SER A   1      56.454  20.463  13.465  0.00  0.00    +0.163 C 
BRANCH  19  20
ATOM     20  OG  SER A   1      56.037  19.588  12.428  0.00  0.00    -0.380 OA
ATOM     21  H   SER A   1      56.140  18.650  12.728  0.00  0.00    +0.211 HD
ENDBRANCH  19  20
ENDBRANCH  16  19
ENDBRANCH  12  16
ENDBRANCH  11  14
BRANCH  11  22
ATOM     22  CB  MET A   2      53.438  22.568   9.164  0.00  0.00    +0.041 C 
BRANCH  22  23
ATOM     23  CG  MET A   2      54.290  23.752   8.722  0.00  0.00    +0.060 C 
BRANCH  23  24
ATOM     24  SD  MET A   2      53.610  25.310   9.333  0.00  0.00    -0.139 S 
ATOM     25  CE  MET A   2      52.104  25.414   8.365  0.00  0.00    +0.069 C 
ENDBRANCH  23  24
ENDBRANCH  22  23
ENDBRANCH  11  22
ENDBRANCH   7  11
ENDBRANCH   5   8
ENDBRANCH   1   5
BRANCH   2  26
ATOM     26  CA  ASN A   4      48.072  19.641   8.504  0.00  0.00    +0.158 C 
BRANCH  26  27
ATOM     27  C   ASN A   4      46.868  18.711   8.510  0.00  0.00    +0.241 C 
ATOM     28  O   ASN A   4      46.526  18.155   9.550  0.00  0.00    -0.273 OA
ATOM     29  N   ALA A   5      46.282  18.501   7.344  0.00  0.00    -0.297 N 
ATOM     30  H   ALA A   5      46.638  19.037   6.526  0.00  0.00    +0.150 HD
BRANCH  29  31
ATOM     31  CA  ALA A   5      45.175  17.577   7.112  0.00  0.00    +0.149 C 
ATOM     32  CB  ALA A   5      43.951  18.346   6.651  0.00  0.00    +0.031 C 
BRANCH  31  33
ATOM     33  C   ALA A   5      45.567  16.507   6.103  0.00  0.00    +0.241 C 
ATOM     34  N   GLY A   6      46.841  16.146   6.104  0.00  0.00    -0.296 N 
ATOM     35  H   GLY A   6      47.508  16.591   6.766  0.00  0.00    +0.150 HD
ATOM     36  O   ALA A   5      44.788  15.965   5.315  0.00  0.00    -0.273 OA
BRANCH  34  37
ATOM     37  CA  GLY A   6      47.308  15.118   5.171  0.00  0.00    +0.163 C 
BRANCH  37  38
ATOM     38  C   GLY A   6      48.355  15.744   4.265  0.00  0.00    +0.229 C 
ATOM     39  O   GLY A   6      48.681  16.916   4.460  0.00  0.00    -0.286 OA
ENDBRANCH  37  38
ENDBRANCH  34  37
ENDBRANCH  31  33
ENDBRANCH  29  31
ENDBRANCH  26  27
BRANCH  26  40
ATOM     40  CB  ASN A   4      49.154  19.219   7.507  0.00  0.00    +0.114 C 
BRANCH  40  41
ATOM     41  CG  ASN A   4      49.855  17.901   7.720  0.00  0.00    +0.222 C 
ATOM     42  ND2 ASN A   4      49.115  16.840   7.968  0.00  0.00    -0.329 N 
ATOM     43 HD21 ASN A   4      49.566  15.915   8.120  0.00  0.00    +0.145 HD
ATOM     44 HD22 ASN A   4      48.080  16.927   8.011  0.00  0.00    +0.145 HD
ATOM     45  OD1 ASN A   4      51.090  17.767   7.674  0.00  0.00    -0.275 OA
ENDBRANCH  40  41
ENDBRANCH  26  40
ENDBRANCH   2  26
TORSDOF 19
REMARK  Name = ../refined-set-2016/2igv/2igv_pocket.pdb
REMARK  108 active torsions:
REMARK  status: ('A' for Active; 'I' for Inactive)
REMARK    1  A    between atoms: _1  and  _3
REMARK    2  A    between atoms: _3  and  _4
REMARK    3  A    between atoms: _3  and  _6
REMARK    4  A    between atoms: _6  and  _7
REMARK    5  A    between atoms: _12  and  _14
REMARK    6  A    between atoms: _14  and  _15
REMARK    7  A    between atoms: _14  and  _17
REMARK    8  A    between atoms: _17  and  _18
REMARK    9  A    between atoms: _18  and  _19
REMARK   10  A    between atoms: _19  and  _20
REMARK   11  A    between atoms: _29  and  _31
REMARK   12  A    between atoms: _31  and  _32
REMARK   13  A    between atoms: _31  and  _34
REMARK   14  A    between atoms: _34  and  _35
REMARK   15  A    between atoms: _38  and  _40
REMARK   16  A    between atoms: _40  and  _41
REMARK   17  A    between atoms: _40  and  _43
REMARK   18  A    between atoms: _43  and  _44
REMARK   19  A    between atoms: _47  and  _49
REMARK   20  A    between atoms: _49  and  _50
REMARK   21  A    between atoms: _49  and  _52
REMARK   22  A    between atoms: _52  and  _53
REMARK   23  A    between atoms: _59  and  _61
REMARK   24  A    between atoms: _61  and  _62
REMARK   25  A    between atoms: _61  and  _64
REMARK   26  A    between atoms: _64  and  _65
REMARK   27  A    between atoms: _65  and  _66
REMARK   28  A    between atoms: _68  and  _70
REMARK   29  A    between atoms: _70  and  _71
REMARK   30  A    between atoms: _70  and  _73
REMARK   31  A    between atoms: _73  and  _74
REMARK   32  A    between atoms: _77  and  _79
REMARK   33  A    between atoms: _79  and  _80
REMARK   34  A    between atoms: _79  and  _82
REMARK   35  A    between atoms: _82  and  _83
REMARK   36  A    between atoms: _83  and  _84
REMARK   37  A    between atoms: _89  and  _91
REMARK   38  A    between atoms: _91  and  _92
REMARK   39  A    between atoms: _94  and  _96
REMARK   40  A    between atoms: _96  and  _97
REMARK   41  A    between atoms: _96  and  _99
REMARK   42  A    between atoms: _99  and  _100
REMARK   43  A    between atoms: _105  and  _107
REMARK   44  A    between atoms: _107  and  _108
REMARK   45  A    between atoms: _107  and  _110
REMARK   46  A    between atoms: _110  and  _111
REMARK   47  A    between atoms: _113  and  _115
REMARK   48  A    between atoms: _115  and  _116
REMARK   49  A    between atoms: _115  and  _118
REMARK   50  A    between atoms: _118  and  _119
REMARK   51  A    between atoms: _119  and  _120
REMARK   52  A    between atoms: _122  and  _124
REMARK   53  A    between atoms: _124  and  _125
REMARK   54  A    between atoms: _128  and  _130
REMARK   55  A    between atoms: _130  and  _131
REMARK   56  A    between atoms: _130  and  _133
REMARK   57  A    between atoms: _133  and  _134
REMARK   58  A    between atoms: _139  and  _141
REMARK   59  A    between atoms: _141  and  _142
REMARK   60  A    between atoms: _145  and  _147
REMARK   61  A    between atoms: _147  and  _148
REMARK   62  A    between atoms: _150  and  _152
REMARK   63  A    between atoms: _152  and  _153
REMARK   64  A    between atoms: _152  and  _155
REMARK   65  A    between atoms: _155  and  _156
REMARK   66  A    between atoms: _159  and  _161
REMARK   67  A    between atoms: _161  and  _162
REMARK   68  A    between atoms: _161  and  _164
REMARK   69  A    between atoms: _164  and  _165
REMARK   70  A    between atoms: _165  and  _166
REMARK   71  A    between atoms: _171  and  _173
REMARK   72  A    between atoms: _173  and  _174
REMARK   73  A    between atoms: _173  and  _176
REMARK   74  A    between atoms: _176  and  _177
REMARK   75  A    between atoms: _183  and  _185
REMARK   76  A    between atoms: _185  and  _186
REMARK   77  A    between atoms: _185  and  _188
REMARK   78  A    between atoms: _188  and  _189
REMARK   79  A    between atoms: _195  and  _197
REMARK   80  A    between atoms: _197  and  _198
REMARK   81  A    between atoms: _197  and  _200
REMARK   82  A    between atoms: _200  and  _201
REMARK   83  A    between atoms: _204  and  _206
REMARK   84  A    between atoms: _206  and  _207
REMARK   85  A    between atoms: _206  and  _209
REMARK   86  A    between atoms: _211  and  _213
REMARK   87  A    between atoms: _213  and  _214
REMARK   88  A    between atoms: _213  and  _216
REMARK   89  A    between atoms: _216  and  _217
REMARK   90  A    between atoms: _220  and  _222
REMARK   91  A    between atoms: _222  and  _223
REMARK   92  A    between atoms: _222  and  _225
REMARK   93  A    between atoms: _225  and  _226
REMARK   94  A    between atoms: _236  and  _238
REMARK   95  A    between atoms: _238  and  _239
REMARK   96  A    between atoms: _238  and  _241
REMARK   97  A    between atoms: _241  and  _242
REMARK   98  A    between atoms: _245  and  _247
REMARK   99  A    between atoms: _247  and  _248
REMARK  100  A    between atoms: _247  and  _250
REMARK  101  A    between atoms: _250  and  _251
REMARK  102  A    between atoms: _251  and  _252
REMARK  103  A    between atoms: _252  and  _253
REMARK  104  A    between atoms: _253  and  _254
REMARK  105  A    between atoms: _258  and  _260
REMARK  106  A    between atoms: _260  and  _261
REMARK  107  A    between atoms: _260  and  _263
REMARK  108  A    between atoms: _263  and  _264
REMARK                            x       y       z     vdW  Elec       q    Type
REMARK                         _______ _______ _______ _____ _____    ______ ____
ROOT
ATOM      1  CA  THR A   1      47.865  20.828   3.168  0.00  0.00    +0.160 C 
ENDROOT
BRANCH   1   2
ATOM      2  N   THR A   1      48.990  20.019   2.726  0.00  0.00    -0.237 NA
ATOM      3  H   THR A   1      49.606  19.568   3.432  0.00  0.00    +0.142 HD
ENDBRANCH   1   2
BRANCH   1   4
ATOM      4  C   THR A   1      48.331  21.866   4.194  0.00  0.00    +0.227 C 
ATOM      5  O   THR A   1      47.538  22.221   5.066  0.00  0.00    -0.287 OA
ENDBRANCH   1   4
BRANCH   1   6
ATOM      6  CB  THR A   1      46.725  19.988   3.768  0.00  0.00    +0.134 C 
ATOM      7  CG2 THR A   1      46.089  19.072   2.708  0.00  0.00    +0.034 C 
BRANCH   6   8
ATOM      8  OG1 THR A   1      47.245  19.117   4.777  0.00  0.00    -0.383 OA
ATOM      9  HG1 THR A   1      47.920  18.515   4.375  0.00  0.00    +0.210 HD
ENDBRANCH   6   8
ENDBRANCH   1   6
TORSDOF 4
REMARK  Name = ../refined-set-2016/2igv/2igv_pocket.pdb
REMARK  108 active torsions:
REMARK  status: ('A' for Active; 'I' for Inactive)
REMARK    1  A    between atoms: _1  and  _3
REMARK    2  A    between atoms: _3  and  _4
REMARK    3  A    between atoms: _3  and  _6
REMARK    4  A    between atoms: _6  and  _7
REMARK    5  A    between atoms: _12  and  _14
REMARK    6  A    between atoms: _14  and  _15
REMARK    7  A    between atoms: _14  and  _17
REMARK    8  A    between atoms: _17  and  _18
REMARK    9  A    between atoms: _18  and  _19
REMARK   10  A    between atoms: _19  and  _20
REMARK   11  A    between atoms: _29  and  _31
REMARK   12  A    between atoms: _31  and  _32
REMARK   13  A    between atoms: _31  and  _34
REMARK   14  A    between atoms: _34  and  _35
REMARK   15  A    between atoms: _38  and  _40
REMARK   16  A    between atoms: _40  and  _41
REMARK   17  A    between atoms: _40  and  _43
REMARK   18  A    between atoms: _43  and  _44
REMARK   19  A    between atoms: _47  and  _49
REMARK   20  A    between atoms: _49  and  _50
REMARK   21  A    between atoms: _49  and  _52
REMARK   22  A    between atoms: _52  and  _53
REMARK   23  A    between atoms: _59  and  _61
REMARK   24  A    between atoms: _61  and  _62
REMARK   25  A    between atoms: _61  and  _64
REMARK   26  A    between atoms: _64  and  _65
REMARK   27  A    between atoms: _65  and  _66
REMARK   28  A    between atoms: _68  and  _70
REMARK   29  A    between atoms: _70  and  _71
REMARK   30  A    between atoms: _70  and  _73
REMARK   31  A    between atoms: _73  and  _74
REMARK   32  A    between atoms: _77  and  _79
REMARK   33  A    between atoms: _79  and  _80
REMARK   34  A    between atoms: _79  and  _82
REMARK   35  A    between atoms: _82  and  _83
REMARK   36  A    between atoms: _83  and  _84
REMARK   37  A    between atoms: _89  and  _91
REMARK   38  A    between atoms: _91  and  _92
REMARK   39  A    between atoms: _94  and  _96
REMARK   40  A    between atoms: _96  and  _97
REMARK   41  A    between atoms: _96  and  _99
REMARK   42  A    between atoms: _99  and  _100
REMARK   43  A    between atoms: _105  and  _107
REMARK   44  A    between atoms: _107  and  _108
REMARK   45  A    between atoms: _107  and  _110
REMARK   46  A    between atoms: _110  and  _111
REMARK   47  A    between atoms: _113  and  _115
REMARK   48  A    between atoms: _115  and  _116
REMARK   49  A    between atoms: _115  and  _118
REMARK   50  A    between atoms: _118  and  _119
REMARK   51  A    between atoms: _119  and  _120
REMARK   52  A    between atoms: _122  and  _124
REMARK   53  A    between atoms: _124  and  _125
REMARK   54  A    between atoms: _128  and  _130
REMARK   55  A    between atoms: _130  and  _131
REMARK   56  A    between atoms: _130  and  _133
REMARK   57  A    between atoms: _133  and  _134
REMARK   58  A    between atoms: _139  and  _141
REMARK   59  A    between atoms: _141  and  _142
REMARK   60  A    between atoms: _145  and  _147
REMARK   61  A    between atoms: _147  and  _148
REMARK   62  A    between atoms: _150  and  _152
REMARK   63  A    between atoms: _152  and  _153
REMARK   64  A    between atoms: _152  and  _155
REMARK   65  A    between atoms: _155  and  _156
REMARK   66  A    between atoms: _159  and  _161
REMARK   67  A    between atoms: _161  and  _162
REMARK   68  A    between atoms: _161  and  _164
REMARK   69  A    between atoms: _164  and  _165
REMARK   70  A    between atoms: _165  and  _166
REMARK   71  A    between atoms: _171  and  _173
REMARK   72  A    between atoms: _173  and  _174
REMARK   73  A    between atoms: _173  and  _176
REMARK   74  A    between atoms: _176  and  _177
REMARK   75  A    between atoms: _183  and  _185
REMARK   76  A    between atoms: _185  and  _186
REMARK   77  A    between atoms: _185  and  _188
REMARK   78  A    between atoms: _188  and  _189
REMARK   79  A    between atoms: _195  and  _197
REMARK   80  A    between atoms: _197  and  _198
REMARK   81  A    between atoms: _197  and  _200
REMARK   82  A    between atoms: _200  and  _201
REMARK   83  A    between atoms: _204  and  _206
REMARK   84  A    between atoms: _206  and  _207
REMARK   85  A    between atoms: _206  and  _209
REMARK   86  A    between atoms: _211  and  _213
REMARK   87  A    between atoms: _213  and  _214
REMARK   88  A    between atoms: _213  and  _216
REMARK   89  A    between atoms: _216  and  _217
REMARK   90  A    between atoms: _220  and  _222
REMARK   91  A    between atoms: _222  and  _223
REMARK   92  A    between atoms: _222  and  _225
REMARK   93  A    between atoms: _225  and  _226
REMARK   94  A    between atoms: _236  and  _238
REMARK   95  A    between atoms: _238  and  _239
REMARK   96  A    between atoms: _238  and  _241
REMARK   97  A    between atoms: _241  and  _242
REMARK   98  A    between atoms: _245  and  _247
REMARK   99  A    between atoms: _247  and  _248
REMARK  100  A    between atoms: _247  and  _250
REMARK  101  A    between atoms: _250  and  _251
REMARK  102  A    between atoms: _251  and  _252
REMARK  103  A    between atoms: _252  and  _253
REMARK  104  A    between atoms: _253  and  _254
REMARK  105  A    between atoms: _258  and  _260
REMARK  106  A    between atoms: _260  and  _261
REMARK  107  A    between atoms: _260  and  _263
REMARK  108  A    between atoms: _263  and  _264
REMARK                            x       y       z     vdW  Elec       q    Type
REMARK                         _______ _______ _______ _____ _____    ______ ____
ROOT
ATOM      1  C   PHE A   2      51.433  24.078  15.120  0.00  0.00    +0.241 C 
ATOM      2  O   PHE A   2      50.445  24.340  15.830  0.00  0.00    -0.273 OA
ATOM      3  N   PHE A   3      52.466  23.362  15.499  0.00  0.00    -0.297 N 
ATOM      4  H   PHE A   3      53.236  23.149  14.833  0.00  0.00    +0.150 HD
ENDROOT
BRANCH   3   5
ATOM      5  CA  PHE A   3      52.514  22.866  16.885  0.00  0.00    +0.153 C 
BRANCH   5   6
ATOM      6  C   PHE A   3      53.929  22.962  17.425  0.00  0.00    +0.241 C 
ATOM      7  N   LEU A   4      54.015  23.115  18.749  0.00  0.00    -0.297 N 
ATOM      8  H   LEU A   4      53.134  23.241  19.288  0.00  0.00    +0.150 HD
ATOM      9  O   PHE A   3      54.919  22.925  16.700  0.00  0.00    -0.273 OA
BRANCH   7  10
ATOM     10  CA  LEU A   4      55.281  23.115  19.483  0.00  0.00    +0.149 C 
BRANCH  10  11
ATOM     11  C   LEU A   4      55.270  21.814  20.281  0.00  0.00    +0.241 C 
ATOM     12  O   LEU A   4      54.319  21.620  21.055  0.00  0.00    -0.273 OA
ATOM     13  N   CYS A   5      56.233  20.957  20.034  0.00  0.00    -0.297 N 
ATOM     14  H   CYS A   5      56.972  21.187  19.339  0.00  0.00    +0.150 HD
BRANCH  13  15
ATOM     15  CA  CYS A   5      56.262  19.671  20.745  0.00  0.00    +0.149 C 
BRANCH  15  16
ATOM     16  C   CYS A   5      56.724  19.854  22.183  0.00  0.00    +0.228 C 
ATOM     17  O   CYS A   5      57.560  20.695  22.454  0.00  0.00    -0.286 OA
ENDBRANCH  15  16
BRANCH  15  18
ATOM     18  CB  CYS A   5      57.248  18.699  20.088  0.00  0.00    +0.096 C 
ATOM     19  SG  CYS A   5      56.739  18.360  18.388  0.00  0.00    -0.080 S 
ENDBRANCH  15  18
ENDBRANCH  13  15
ENDBRANCH  10  11
BRANCH  10  20
ATOM     20  CB  LEU A   4      55.426  24.339  20.377  0.00  0.00    +0.029 C 
BRANCH  20  21
ATOM     21  CG  LEU A   4      55.582  25.692  19.682  0.00  0.00    +0.002 C 
ATOM     22  CD2 LEU A   4      55.157  26.859  20.551  0.00  0.00    +0.000 C 
ATOM     23  CD1 LEU A   4      57.027  25.904  19.230  0.00  0.00    +0.000 C 
ENDBRANCH  20  21
ENDBRANCH  10  20
ENDBRANCH   7  10
ENDBRANCH   5   6
BRANCH   5  24
ATOM     24  CB  PHE A   3      51.948  21.456  16.973  0.00  0.00    +0.055 C 
BRANCH  24  25
ATOM     25  CG  PHE A   3      52.625  20.375  16.155  0.00  0.00    -0.020 A 
ATOM     26  CD2 PHE A   3      53.549  19.510  16.715  0.00  0.00    -0.004 A 
ATOM     27  CE2 PHE A   3      54.165  18.498  15.987  0.00  0.00    -0.000 A 
ATOM     28  CZ  PHE A   3      53.841  18.378  14.643  0.00  0.00    -0.000 A 
ATOM     29  CE1 PHE A   3      52.931  19.262  14.075  0.00  0.00    -0.000 A 
ATOM     30  CD1 PHE A   3      52.310  20.253  14.800  0.00  0.00    -0.004 A 
ENDBRANCH  24  25
ENDBRANCH   5  24
ENDBRANCH   3   5
BRANCH   1  31
ATOM     31  CA  PHE A   2      51.493  24.766  13.755  0.00  0.00    +0.153 C 
BRANCH  31  33
ATOM     32  C   GLN A   1      49.688  25.207  12.162  0.00  0.00    +0.238 C 
ATOM     33  N   PHE A   2      50.157  25.240  13.422  0.00  0.00    -0.297 N 
ATOM     34  H   PHE A   2      49.549  25.614  14.179  0.00  0.00    +0.150 HD
ATOM     35  O   GLN A   1      50.309  24.640  11.254  0.00  0.00    -0.274 OA
BRANCH  32  36
ATOM     36  CA  GLN A   1      48.350  25.888  11.927  0.00  0.00    +0.145 C 
BRANCH  36  37
ATOM     37  N   GLN A   1      48.333  26.619  10.648  0.00  0.00    -0.238 NA
ATOM     38  H   GLN A   1      47.840  26.223   9.822  0.00  0.00    +0.142 HD
ENDBRANCH  36  37
BRANCH  36  39
ATOM     39  CB  GLN A   1      47.184  24.892  11.966  0.00  0.00    +0.036 C 
BRANCH  39  40
ATOM     40  CG  GLN A   1      45.850  25.601  12.162  0.00  0.00    +0.087 C 
BRANCH  40  41
ATOM     41  CD  GLN A   1      44.754  24.571  12.451  0.00  0.00    +0.219 C 
ATOM     42  OE1 GLN A   1      44.853  23.704  13.322  0.00  0.00    -0.275 OA
ATOM     43  NE2 GLN A   1      43.689  24.673  11.660  0.00  0.00    -0.329 N 
ATOM     44 HE21 GLN A   1      42.898  24.006  11.764  0.00  0.00    +0.145 HD
ATOM     45 HE22 GLN A   1      43.647  25.420  10.938  0.00  0.00    +0.145 HD
ENDBRANCH  40  41
ENDBRANCH  39  40
ENDBRANCH  36  39
ENDBRANCH  32  36
ENDBRANCH  31  33
BRANCH  31  46
ATOM     46  CB  PHE A   2      52.509  25.919  13.787  0.00  0.00    +0.055 C 
BRANCH  46  47
ATOM     47  CG  PHE A   2      52.176  26.920  14.894  0.00  0.00    -0.020 A 
ATOM     48  CD2 PHE A   2      52.765  26.865  16.150  0.00  0.00    -0.004 A 
ATOM     49  CE2 PHE A   2      52.385  27.733  17.142  0.00  0.00    -0.000 A 
ATOM     50  CZ  PHE A   2      51.462  28.722  16.900  0.00  0.00    -0.000 A 
ATOM     51  CE1 PHE A   2      50.891  28.851  15.642  0.00  0.00    -0.000 A 
ATOM     52  CD1 PHE A   2      51.263  27.932  14.669  0.00  0.00    -0.004 A 
ENDBRANCH  46  47
ENDBRANCH  31  46
ENDBRANCH   1  31
TORSDOF 20
REMARK  Name = ../refined-set-2016/2igv/2igv_pocket.pdb
REMARK  108 active torsions:
REMARK  status: ('A' for Active; 'I' for Inactive)
REMARK    1  A    between atoms: _1  and  _3
REMARK    2  A    between atoms: _3  and  _4
REMARK    3  A    between atoms: _3  and  _6
REMARK    4  A    between atoms: _6  and  _7
REMARK    5  A    between atoms: _12  and  _14
REMARK    6  A    between atoms: _14  and  _15
REMARK    7  A    between atoms: _14  and  _17
REMARK    8  A    between atoms: _17  and  _18
REMARK    9  A    between atoms: _18  and  _19
REMARK   10  A    between atoms: _19  and  _20
REMARK   11  A    between atoms: _29  and  _31
REMARK   12  A    between atoms: _31  and  _32
REMARK   13  A    between atoms: _31  and  _34
REMARK   14  A    between atoms: _34  and  _35
REMARK   15  A    between atoms: _38  and  _40
REMARK   16  A    between atoms: _40  and  _41
REMARK   17  A    between atoms: _40  and  _43
REMARK   18  A    between atoms: _43  and  _44
REMARK   19  A    between atoms: _47  and  _49
REMARK   20  A    between atoms: _49  and  _50
REMARK   21  A    between atoms: _49  and  _52
REMARK   22  A    between atoms: _52  and  _53
REMARK   23  A    between atoms: _59  and  _61
REMARK   24  A    between atoms: _61  and  _62
REMARK   25  A    between atoms: _61  and  _64
REMARK   26  A    between atoms: _64  and  _65
REMARK   27  A    between atoms: _65  and  _66
REMARK   28  A    between atoms: _68  and  _70
REMARK   29  A    between atoms: _70  and  _71
REMARK   30  A    between atoms: _70  and  _73
REMARK   31  A    between atoms: _73  and  _74
REMARK   32  A    between atoms: _77  and  _79
REMARK   33  A    between atoms: _79  and  _80
REMARK   34  A    between atoms: _79  and  _82
REMARK   35  A    between atoms: _82  and  _83
REMARK   36  A    between atoms: _83  and  _84
REMARK   37  A    between atoms: _89  and  _91
REMARK   38  A    between atoms: _91  and  _92
REMARK   39  A    between atoms: _94  and  _96
REMARK   40  A    between atoms: _96  and  _97
REMARK   41  A    between atoms: _96  and  _99
REMARK   42  A    between atoms: _99  and  _100
REMARK   43  A    between atoms: _105  and  _107
REMARK   44  A    between atoms: _107  and  _108
REMARK   45  A    between atoms: _107  and  _110
REMARK   46  A    between atoms: _110  and  _111
REMARK   47  A    between atoms: _113  and  _115
REMARK   48  A    between atoms: _115  and  _116
REMARK   49  A    between atoms: _115  and  _118
REMARK   50  A    between atoms: _118  and  _119
REMARK   51  A    between atoms: _119  and  _120
REMARK   52  A    between atoms: _122  and  _124
REMARK   53  A    between atoms: _124  and  _125
REMARK   54  A    between atoms: _128  and  _130
REMARK   55  A    between atoms: _130  and  _131
REMARK   56  A    between atoms: _130  and  _133
REMARK   57  A    between atoms: _133  and  _134
REMARK   58  A    between atoms: _139  and  _141
REMARK   59  A    between atoms: _141  and  _142
REMARK   60  A    between atoms: _145  and  _147
REMARK   61  A    between atoms: _147  and  _148
REMARK   62  A    between atoms: _150  and  _152
REMARK   63  A    between atoms: _152  and  _153
REMARK   64  A    between atoms: _152  and  _155
REMARK   65  A    between atoms: _155  and  _156
REMARK   66  A    between atoms: _159  and  _161
REMARK   67  A    between atoms: _161  and  _162
REMARK   68  A    between atoms: _161  and  _164
REMARK   69  A    between atoms: _164  and  _165
REMARK   70  A    between atoms: _165  and  _166
REMARK   71  A    between atoms: _171  and  _173
REMARK   72  A    between atoms: _173  and  _174
REMARK   73  A    between atoms: _173  and  _176
REMARK   74  A    between atoms: _176  and  _177
REMARK   75  A    between atoms: _183  and  _185
REMARK   76  A    between atoms: _185  and  _186
REMARK   77  A    between atoms: _185  and  _188
REMARK   78  A    between atoms: _188  and  _189
REMARK   79  A    between atoms: _195  and  _197
REMARK   80  A    between atoms: _197  and  _198
REMARK   81  A    between atoms: _197  and  _200
REMARK   82  A    between atoms: _200  and  _201
REMARK   83  A    between atoms: _204  and  _206
REMARK   84  A    between atoms: _206  and  _207
REMARK   85  A    between atoms: _206  and  _209
REMARK   86  A    between atoms: _211  and  _213
REMARK   87  A    between atoms: _213  and  _214
REMARK   88  A    between atoms: _213  and  _216
REMARK   89  A    between atoms: _216  and  _217
REMARK   90  A    between atoms: _220  and  _222
REMARK   91  A    between atoms: _222  and  _223
REMARK   92  A    between atoms: _222  and  _225
REMARK   93  A    between atoms: _225  and  _226
REMARK   94  A    between atoms: _236  and  _238
REMARK   95  A    between atoms: _238  and  _239
REMARK   96  A    between atoms: _238  and  _241
REMARK   97  A    between atoms: _241  and  _242
REMARK   98  A    between atoms: _245  and  _247
REMARK   99  A    between atoms: _247  and  _248
REMARK  100  A    between atoms: _247  and  _250
REMARK  101  A    between atoms: _250  and  _251
REMARK  102  A    between atoms: _251  and  _252
REMARK  103  A    between atoms: _252  and  _253
REMARK  104  A    between atoms: _253  and  _254
REMARK  105  A    between atoms: _258  and  _260
REMARK  106  A    between atoms: _260  and  _261
REMARK  107  A    between atoms: _260  and  _263
REMARK  108  A    between atoms: _263  and  _264
REMARK                            x       y       z     vdW  Elec       q    Type
REMARK                         _______ _______ _______ _____ _____    ______ ____
ROOT
ATOM      1  CA  THR A   1      57.416  12.835  18.463  0.00  0.00    +0.160 C 
ENDROOT
BRANCH   1   2
ATOM      2  N   THR A   1      58.622  13.333  19.114  0.00  0.00    -0.237 NA
ATOM      3  H   THR A   1      59.263  13.950  18.575  0.00  0.00    +0.142 HD
ENDBRANCH   1   2
BRANCH   1   4
ATOM      4  CB  THR A   1      56.348  13.930  18.285  0.00  0.00    +0.134 C 
ATOM      5  CG2 THR A   1      56.035  14.619  19.617  0.00  0.00    +0.034 C 
BRANCH   4   6
ATOM      6  OG1 THR A   1      56.805  14.989  17.424  0.00  0.00    -0.383 OA
ATOM      7  HG1 THR A   1      57.021  14.618  16.532  0.00  0.00    +0.210 HD
ENDBRANCH   4   6
ENDBRANCH   1   4
BRANCH   1   8
ATOM      8  C   THR A   1      57.812  12.235  17.117  0.00  0.00    +0.227 C 
ATOM      9  O   THR A   1      57.330  12.663  16.062  0.00  0.00    -0.287 OA
ENDBRANCH   1   8
TORSDOF 4
REMARK  Name = ../refined-set-2016/2igv/2igv_pocket.pdb
REMARK  108 active torsions:
REMARK  status: ('A' for Active; 'I' for Inactive)
REMARK    1  A    between atoms: _1  and  _3
REMARK    2  A    between atoms: _3  and  _4
REMARK    3  A    between atoms: _3  and  _6
REMARK    4  A    between atoms: _6  and  _7
REMARK    5  A    between atoms: _12  and  _14
REMARK    6  A    between atoms: _14  and  _15
REMARK    7  A    between atoms: _14  and  _17
REMARK    8  A    between atoms: _17  and  _18
REMARK    9  A    between atoms: _18  and  _19
REMARK   10  A    between atoms: _19  and  _20
REMARK   11  A    between atoms: _29  and  _31
REMARK   12  A    between atoms: _31  and  _32
REMARK   13  A    between atoms: _31  and  _34
REMARK   14  A    between atoms: _34  and  _35
REMARK   15  A    between atoms: _38  and  _40
REMARK   16  A    between atoms: _40  and  _41
REMARK   17  A    between atoms: _40  and  _43
REMARK   18  A    between atoms: _43  and  _44
REMARK   19  A    between atoms: _47  and  _49
REMARK   20  A    between atoms: _49  and  _50
REMARK   21  A    between atoms: _49  and  _52
REMARK   22  A    between atoms: _52  and  _53
REMARK   23  A    between atoms: _59  and  _61
REMARK   24  A    between atoms: _61  and  _62
REMARK   25  A    between atoms: _61  and  _64
REMARK   26  A    between atoms: _64  and  _65
REMARK   27  A    between atoms: _65  and  _66
REMARK   28  A    between atoms: _68  and  _70
REMARK   29  A    between atoms: _70  and  _71
REMARK   30  A    between atoms: _70  and  _73
REMARK   31  A    between atoms: _73  and  _74
REMARK   32  A    between atoms: _77  and  _79
REMARK   33  A    between atoms: _79  and  _80
REMARK   34  A    between atoms: _79  and  _82
REMARK   35  A    between atoms: _82  and  _83
REMARK   36  A    between atoms: _83  and  _84
REMARK   37  A    between atoms: _89  and  _91
REMARK   38  A    between atoms: _91  and  _92
REMARK   39  A    between atoms: _94  and  _96
REMARK   40  A    between atoms: _96  and  _97
REMARK   41  A    between atoms: _96  and  _99
REMARK   42  A    between atoms: _99  and  _100
REMARK   43  A    between atoms: _105  and  _107
REMARK   44  A    between atoms: _107  and  _108
REMARK   45  A    between atoms: _107  and  _110
REMARK   46  A    between atoms: _110  and  _111
REMARK   47  A    between atoms: _113  and  _115
REMARK   48  A    between atoms: _115  and  _116
REMARK   49  A    between atoms: _115  and  _118
REMARK   50  A    between atoms: _118  and  _119
REMARK   51  A    between atoms: _119  and  _120
REMARK   52  A    between atoms: _122  and  _124
REMARK   53  A    between atoms: _124  and  _125
REMARK   54  A    between atoms: _128  and  _130
REMARK   55  A    between atoms: _130  and  _131
REMARK   56  A    between atoms: _130  and  _133
REMARK   57  A    between atoms: _133  and  _134
REMARK   58  A    between atoms: _139  and  _141
REMARK   59  A    between atoms: _141  and  _142
REMARK   60  A    between atoms: _145  and  _147
REMARK   61  A    between atoms: _147  and  _148
REMARK   62  A    between atoms: _150  and  _152
REMARK   63  A    between atoms: _152  and  _153
REMARK   64  A    between atoms: _152  and  _155
REMARK   65  A    between atoms: _155  and  _156
REMARK   66  A    between atoms: _159  and  _161
REMARK   67  A    between atoms: _161  and  _162
REMARK   68  A    between atoms: _161  and  _164
REMARK   69  A    between atoms: _164  and  _165
REMARK   70  A    between atoms: _165  and  _166
REMARK   71  A    between atoms: _171  and  _173
REMARK   72  A    between atoms: _173  and  _174
REMARK   73  A    between atoms: _173  and  _176
REMARK   74  A    between atoms: _176  and  _177
REMARK   75  A    between atoms: _183  and  _185
REMARK   76  A    between atoms: _185  and  _186
REMARK   77  A    between atoms: _185  and  _188
REMARK   78  A    between atoms: _188  and  _189
REMARK   79  A    between atoms: _195  and  _197
REMARK   80  A    between atoms: _197  and  _198
REMARK   81  A    between atoms: _197  and  _200
REMARK   82  A    between atoms: _200  and  _201
REMARK   83  A    between atoms: _204  and  _206
REMARK   84  A    between atoms: _206  and  _207
REMARK   85  A    between atoms: _206  and  _209
REMARK   86  A    between atoms: _211  and  _213
REMARK   87  A    between atoms: _213  and  _214
REMARK   88  A    between atoms: _213  and  _216
REMARK   89  A    between atoms: _216  and  _217
REMARK   90  A    between atoms: _220  and  _222
REMARK   91  A    between atoms: _222  and  _223
REMARK   92  A    between atoms: _222  and  _225
REMARK   93  A    between atoms: _225  and  _226
REMARK   94  A    between atoms: _236  and  _238
REMARK   95  A    between atoms: _238  and  _239
REMARK   96  A    between atoms: _238  and  _241
REMARK   97  A    between atoms: _241  and  _242
REMARK   98  A    between atoms: _245  and  _247
REMARK   99  A    between atoms: _247  and  _248
REMARK  100  A    between atoms: _247  and  _250
REMARK  101  A    between atoms: _250  and  _251
REMARK  102  A    between atoms: _251  and  _252
REMARK  103  A    between atoms: _252  and  _253
REMARK  104  A    between atoms: _253  and  _254
REMARK  105  A    between atoms: _258  and  _260
REMARK  106  A    between atoms: _260  and  _261
REMARK  107  A    between atoms: _260  and  _263
REMARK  108  A    between atoms: _263  and  _264
REMARK                            x       y       z     vdW  Elec       q    Type
REMARK                         _______ _______ _______ _____ _____    ______ ____
ROOT
ATOM      1  CA  TRP A   1      56.082   9.110  14.612  0.00  0.00    +0.149 C 
ENDROOT
BRANCH   1   2
ATOM      2  C   TRP A   1      55.531  10.156  13.646  0.00  0.00    +0.239 C 
ATOM      3  N   LEU A   2      55.831  11.442  13.851  0.00  0.00    -0.298 N 
ATOM      4  H   LEU A   2      56.395  11.718  14.680  0.00  0.00    +0.150 HD
ATOM      5  O   TRP A   1      54.833   9.783  12.695  0.00  0.00    -0.274 OA
BRANCH   3   6
ATOM      6  CA  LEU A   2      55.367  12.460  12.912  0.00  0.00    +0.137 C 
BRANCH   6   7
ATOM      7  C   LEU A   2      56.415  12.762  11.844  0.00  0.00    +0.227 C 
ATOM      8  O   LEU A   2      56.135  13.522  10.903  0.00  0.00    -0.286 OA
ENDBRANCH   6   7
BRANCH   6   9
ATOM      9  CB  LEU A   2      55.037  13.783  13.634  0.00  0.00    +0.028 C 
BRANCH   9  10
ATOM     10  CG  LEU A   2      53.954  13.657  14.713  0.00  0.00    +0.002 C 
ATOM     11  CD2 LEU A   2      53.775  14.997  15.419  0.00  0.00    +0.000 C 
ATOM     12  CD1 LEU A   2      52.636  13.139  14.138  0.00  0.00    +0.000 C 
ENDBRANCH   9  10
ENDBRANCH   6   9
ENDBRANCH   3   6
ENDBRANCH   1   2
BRANCH   1  13
ATOM     13  N   TRP A   1      57.101   9.650  15.513  0.00  0.00    -0.238 NA
ATOM     14  H   TRP A   1      56.904   9.705  16.533  0.00  0.00    +0.142 HD
ENDBRANCH   1  13
BRANCH   1  15
ATOM     15  CB  TRP A   1      54.919   8.446  15.364  0.00  0.00    +0.054 C 
BRANCH  15  16
ATOM     16  CG  TRP A   1      54.158   9.358  16.278  0.00  0.00    -0.002 A 
ATOM     17  CD2 TRP A   1      54.520   9.695  17.632  0.00  0.00    +0.013 A 
ATOM     18  CE3 TRP A   1      55.583   9.328  18.467  0.00  0.00    +0.001 A 
ATOM     19  CZ3 TRP A   1      55.623   9.857  19.754  0.00  0.00    +0.000 A 
ATOM     20  CH2 TRP A   1      54.617  10.734  20.200  0.00  0.00    +0.001 A 
ATOM     21  CZ2 TRP A   1      53.564  11.110  19.400  0.00  0.00    +0.017 A 
ATOM     22  CE2 TRP A   1      53.528  10.576  18.107  0.00  0.00    +0.056 A 
ATOM     23  NE1 TRP A   1      52.606  10.775  17.107  0.00  0.00    -0.352 N 
ATOM     24  HE1 TRP A   1      51.761  11.378  17.162  0.00  0.00    +0.166 HD
ATOM     25  CD1 TRP A   1      53.006  10.028  16.014  0.00  0.00    +0.068 A 
ENDBRANCH  15  16
ENDBRANCH   1  15
TORSDOF 8
REMARK  Name = ../refined-set-2016/2igv/2igv_pocket.pdb
REMARK  108 active torsions:
REMARK  status: ('A' for Active; 'I' for Inactive)
REMARK    1  A    between atoms: _1  and  _3
REMARK    2  A    between atoms: _3  and  _4
REMARK    3  A    between atoms: _3  and  _6
REMARK    4  A    between atoms: _6  and  _7
REMARK    5  A    between atoms: _12  and  _14
REMARK    6  A    between atoms: _14  and  _15
REMARK    7  A    between atoms: _14  and  _17
REMARK    8  A    between atoms: _17  and  _18
REMARK    9  A    between atoms: _18  and  _19
REMARK   10  A    between atoms: _19  and  _20
REMARK   11  A    between atoms: _29  and  _31
REMARK   12  A    between atoms: _31  and  _32
REMARK   13  A    between atoms: _31  and  _34
REMARK   14  A    between atoms: _34  and  _35
REMARK   15  A    between atoms: _38  and  _40
REMARK   16  A    between atoms: _40  and  _41
REMARK   17  A    between atoms: _40  and  _43
REMARK   18  A    between atoms: _43  and  _44
REMARK   19  A    between atoms: _47  and  _49
REMARK   20  A    between atoms: _49  and  _50
REMARK   21  A    between atoms: _49  and  _52
REMARK   22  A    between atoms: _52  and  _53
REMARK   23  A    between atoms: _59  and  _61
REMARK   24  A    between atoms: _61  and  _62
REMARK   25  A    between atoms: _61  and  _64
REMARK   26  A    between atoms: _64  and  _65
REMARK   27  A    between atoms: _65  and  _66
REMARK   28  A    between atoms: _68  and  _70
REMARK   29  A    between atoms: _70  and  _71
REMARK   30  A    between atoms: _70  and  _73
REMARK   31  A    between atoms: _73  and  _74
REMARK   32  A    between atoms: _77  and  _79
REMARK   33  A    between atoms: _79  and  _80
REMARK   34  A    between atoms: _79  and  _82
REMARK   35  A    between atoms: _82  and  _83
REMARK   36  A    between atoms: _83  and  _84
REMARK   37  A    between atoms: _89  and  _91
REMARK   38  A    between atoms: _91  and  _92
REMARK   39  A    between atoms: _94  and  _96
REMARK   40  A    between atoms: _96  and  _97
REMARK   41  A    between atoms: _96  and  _99
REMARK   42  A    between atoms: _99  and  _100
REMARK   43  A    between atoms: _105  and  _107
REMARK   44  A    between atoms: _107  and  _108
REMARK   45  A    between atoms: _107  and  _110
REMARK   46  A    between atoms: _110  and  _111
REMARK   47  A    between atoms: _113  and  _115
REMARK   48  A    between atoms: _115  and  _116
REMARK   49  A    between atoms: _115  and  _118
REMARK   50  A    between atoms: _118  and  _119
REMARK   51  A    between atoms: _119  and  _120
REMARK   52  A    between atoms: _122  and  _124
REMARK   53  A    between atoms: _124  and  _125
REMARK   54  A    between atoms: _128  and  _130
REMARK   55  A    between atoms: _130  and  _131
REMARK   56  A    between atoms: _130  and  _133
REMARK   57  A    between atoms: _133  and  _134
REMARK   58  A    between atoms: _139  and  _141
REMARK   59  A    between atoms: _141  and  _142
REMARK   60  A    between atoms: _145  and  _147
REMARK   61  A    between atoms: _147  and  _148
REMARK   62  A    between atoms: _150  and  _152
REMARK   63  A    between atoms: _152  and  _153
REMARK   64  A    between atoms: _152  and  _155
REMARK   65  A    between atoms: _155  and  _156
REMARK   66  A    between atoms: _159  and  _161
REMARK   67  A    between atoms: _161  and  _162
REMARK   68  A    between atoms: _161  and  _164
REMARK   69  A    between atoms: _164  and  _165
REMARK   70  A    between atoms: _165  and  _166
REMARK   71  A    between atoms: _171  and  _173
REMARK   72  A    between atoms: _173  and  _174
REMARK   73  A    between atoms: _173  and  _176
REMARK   74  A    between atoms: _176  and  _177
REMARK   75  A    between atoms: _183  and  _185
REMARK   76  A    between atoms: _185  and  _186
REMARK   77  A    between atoms: _185  and  _188
REMARK   78  A    between atoms: _188  and  _189
REMARK   79  A    between atoms: _195  and  _197
REMARK   80  A    between atoms: _197  and  _198
REMARK   81  A    between atoms: _197  and  _200
REMARK   82  A    between atoms: _200  and  _201
REMARK   83  A    between atoms: _204  and  _206
REMARK   84  A    between atoms: _206  and  _207
REMARK   85  A    between atoms: _206  and  _209
REMARK   86  A    between atoms: _211  and  _213
REMARK   87  A    between atoms: _213  and  _214
REMARK   88  A    between atoms: _213  and  _216
REMARK   89  A    between atoms: _216  and  _217
REMARK   90  A    between atoms: _220  and  _222
REMARK   91  A    between atoms: _222  and  _223
REMARK   92  A    between atoms: _222  and  _225
REMARK   93  A    between atoms: _225  and  _226
REMARK   94  A    between atoms: _236  and  _238
REMARK   95  A    between atoms: _238  and  _239
REMARK   96  A    between atoms: _238  and  _241
REMARK   97  A    between atoms: _241  and  _242
REMARK   98  A    between atoms: _245  and  _247
REMARK   99  A    between atoms: _247  and  _248
REMARK  100  A    between atoms: _247  and  _250
REMARK  101  A    between atoms: _250  and  _251
REMARK  102  A    between atoms: _251  and  _252
REMARK  103  A    between atoms: _252  and  _253
REMARK  104  A    between atoms: _253  and  _254
REMARK  105  A    between atoms: _258  and  _260
REMARK  106  A    between atoms: _260  and  _261
REMARK  107  A    between atoms: _260  and  _263
REMARK  108  A    between atoms: _263  and  _264
REMARK                            x       y       z     vdW  Elec       q    Type
REMARK                         _______ _______ _______ _____ _____    ______ ____
ROOT
ATOM      1  C   LYS A   1      54.040  15.044   8.087  0.00  0.00    +0.238 C 
ATOM      2  N   HIS A   2      54.839  15.660   8.946  0.00  0.00    -0.298 N 
ATOM      3  H   HIS A   2      55.570  15.093   9.422  0.00  0.00    +0.150 HD
ATOM      4  O   LYS A   1      53.091  15.607   7.555  0.00  0.00    -0.274 OA
ENDROOT
BRANCH   1   5
ATOM      5  CA  LYS A   1      54.374  13.565   7.828  0.00  0.00    +0.145 C 
BRANCH   5   6
ATOM      6  N   LYS A   1      55.794  13.301   7.944  0.00  0.00    -0.238 NA
ATOM      7  H   LYS A   1      56.263  13.535   8.842  0.00  0.00    +0.142 HD
ENDBRANCH   5   6
BRANCH   5   8
ATOM      8  CB  LYS A   1      53.570  12.714   8.818  0.00  0.00    +0.026 C 
BRANCH   8   9
ATOM      9  CG  LYS A   1      53.470  11.232   8.493  0.00  0.00    -0.000 C 
BRANCH   9  10
ATOM     10  CD  LYS A   1      53.324  10.408   9.763  0.00  0.00    -0.024 C 
BRANCH  10  11
ATOM     11  CE  LYS A   1      53.860   8.999   9.599  0.00  0.00    -0.086 C 
BRANCH  11  12
ATOM     12  NZ  LYS A   1      55.165   8.771  10.279  0.00  0.00    +0.380 N 
ATOM     13  HZ1 LYS A   1      55.058   8.945  11.299  0.00  0.00    -0.089 HD
ATOM     14  HZ2 LYS A   1      55.468   7.788  10.124  0.00  0.00    -0.089 HD
ATOM     15  HZ3 LYS A   1      55.877   9.421   9.888  0.00  0.00    -0.089 HD
ENDBRANCH  11  12
ENDBRANCH  10  11
ENDBRANCH   9  10
ENDBRANCH   8   9
ENDBRANCH   5   8
ENDBRANCH   1   5
BRANCH   2  16
ATOM     16  CA  HIS A   2      54.761  17.082   9.269  0.00  0.00    +0.143 C 
BRANCH  16  17
ATOM     17  C   HIS A   2      56.103  17.744   9.008  0.00  0.00    +0.227 C 
ATOM     18  O   HIS A   2      57.169  17.205   9.343  0.00  0.00    -0.286 OA
ENDBRANCH  16  17
BRANCH  16  19
ATOM     19  CB  HIS A   2      54.326  17.254  10.730  0.00  0.00    +0.075 C 
BRANCH  19  20
ATOM     20  CG  HIS A   2      52.953  16.686  10.955  0.00  0.00    +0.082 A 
ATOM     21  CD2 HIS A   2      52.523  15.426  11.214  0.00  0.00    +0.115 A 
ATOM     22  NE2 HIS A   2      51.166  15.465  11.310  0.00  0.00    -0.221 NA
ATOM     23  CE1 HIS A   2      50.764  16.700  11.121  0.00  0.00    +0.199 A 
ATOM     24  ND1 HIS A   2      51.820  17.459  10.900  0.00  0.00    -0.227 NA
ENDBRANCH  19  20
ENDBRANCH  16  19
ENDBRANCH   2  16
TORSDOF 11
REMARK  Name = ../refined-set-2016/2igv/2igv_pocket.pdb
REMARK  108 active torsions:
REMARK  status: ('A' for Active; 'I' for Inactive)
REMARK    1  A    between atoms: _1  and  _3
REMARK    2  A    between atoms: _3  and  _4
REMARK    3  A    between atoms: _3  and  _6
REMARK    4  A    between atoms: _6  and  _7
REMARK    5  A    between atoms: _12  and  _14
REMARK    6  A    between atoms: _14  and  _15
REMARK    7  A    between atoms: _14  and  _17
REMARK    8  A    between atoms: _17  and  _18
REMARK    9  A    between atoms: _18  and  _19
REMARK   10  A    between atoms: _19  and  _20
REMARK   11  A    between atoms: _29  and  _31
REMARK   12  A    between atoms: _31  and  _32
REMARK   13  A    between atoms: _31  and  _34
REMARK   14  A    between atoms: _34  and  _35
REMARK   15  A    between atoms: _38  and  _40
REMARK   16  A    between atoms: _40  and  _41
REMARK   17  A    between atoms: _40  and  _43
REMARK   18  A    between atoms: _43  and  _44
REMARK   19  A    between atoms: _47  and  _49
REMARK   20  A    between atoms: _49  and  _50
REMARK   21  A    between atoms: _49  and  _52
REMARK   22  A    between atoms: _52  and  _53
REMARK   23  A    between atoms: _59  and  _61
REMARK   24  A    between atoms: _61  and  _62
REMARK   25  A    between atoms: _61  and  _64
REMARK   26  A    between atoms: _64  and  _65
REMARK   27  A    between atoms: _65  and  _66
REMARK   28  A    between atoms: _68  and  _70
REMARK   29  A    between atoms: _70  and  _71
REMARK   30  A    between atoms: _70  and  _73
REMARK   31  A    between atoms: _73  and  _74
REMARK   32  A    between atoms: _77  and  _79
REMARK   33  A    between atoms: _79  and  _80
REMARK   34  A    between atoms: _79  and  _82
REMARK   35  A    between atoms: _82  and  _83
REMARK   36  A    between atoms: _83  and  _84
REMARK   37  A    between atoms: _89  and  _91
REMARK   38  A    between atoms: _91  and  _92
REMARK   39  A    between atoms: _94  and  _96
REMARK   40  A    between atoms: _96  and  _97
REMARK   41  A    between atoms: _96  and  _99
REMARK   42  A    between atoms: _99  and  _100
REMARK   43  A    between atoms: _105  and  _107
REMARK   44  A    between atoms: _107  and  _108
REMARK   45  A    between atoms: _107  and  _110
REMARK   46  A    between atoms: _110  and  _111
REMARK   47  A    between atoms: _113  and  _115
REMARK   48  A    between atoms: _115  and  _116
REMARK   49  A    between atoms: _115  and  _118
REMARK   50  A    between atoms: _118  and  _119
REMARK   51  A    between atoms: _119  and  _120
REMARK   52  A    between atoms: _122  and  _124
REMARK   53  A    between atoms: _124  and  _125
REMARK   54  A    between atoms: _128  and  _130
REMARK   55  A    between atoms: _130  and  _131
REMARK   56  A    between atoms: _130  and  _133
REMARK   57  A    between atoms: _133  and  _134
REMARK   58  A    between atoms: _139  and  _141
REMARK   59  A    between atoms: _141  and  _142
REMARK   60  A    between atoms: _145  and  _147
REMARK   61  A    between atoms: _147  and  _148
REMARK   62  A    between atoms: _150  and  _152
REMARK   63  A    between atoms: _152  and  _153
REMARK   64  A    between atoms: _152  and  _155
REMARK   65  A    between atoms: _155  and  _156
REMARK   66  A    between atoms: _159  and  _161
REMARK   67  A    between atoms: _161  and  _162
REMARK   68  A    between atoms: _161  and  _164
REMARK   69  A    between atoms: _164  and  _165
REMARK   70  A    between atoms: _165  and  _166
REMARK   71  A    between atoms: _171  and  _173
REMARK   72  A    between atoms: _173  and  _174
REMARK   73  A    between atoms: _173  and  _176
REMARK   74  A    between atoms: _176  and  _177
REMARK   75  A    between atoms: _183  and  _185
REMARK   76  A    between atoms: _185  and  _186
REMARK   77  A    between atoms: _185  and  _188
REMARK   78  A    between atoms: _188  and  _189
REMARK   79  A    between atoms: _195  and  _197
REMARK   80  A    between atoms: _197  and  _198
REMARK   81  A    between atoms: _197  and  _200
REMARK   82  A    between atoms: _200  and  _201
REMARK   83  A    between atoms: _204  and  _206
REMARK   84  A    between atoms: _206  and  _207
REMARK   85  A    between atoms: _206  and  _209
REMARK   86  A    between atoms: _211  and  _213
REMARK   87  A    between atoms: _213  and  _214
REMARK   88  A    between atoms: _213  and  _216
REMARK   89  A    between atoms: _216  and  _217
REMARK   90  A    between atoms: _220  and  _222
REMARK   91  A    between atoms: _222  and  _223
REMARK   92  A    between atoms: _222  and  _225
REMARK   93  A    between atoms: _225  and  _226
REMARK   94  A    between atoms: _236  and  _238
REMARK   95  A    between atoms: _238  and  _239
REMARK   96  A    between atoms: _238  and  _241
REMARK   97  A    between atoms: _241  and  _242
REMARK   98  A    between atoms: _245  and  _247
REMARK   99  A    between atoms: _247  and  _248
REMARK  100  A    between atoms: _247  and  _250
REMARK  101  A    between atoms: _250  and  _251
REMARK  102  A    between atoms: _251  and  _252
REMARK  103  A    between atoms: _252  and  _253
REMARK  104  A    between atoms: _253  and  _254
REMARK  105  A    between atoms: _258  and  _260
REMARK  106  A    between atoms: _260  and  _261
REMARK  107  A    between atoms: _260  and  _263
REMARK  108  A    between atoms: _263  and  _264
REMARK                            x       y       z     vdW  Elec       q    Type
REMARK                         _______ _______ _______ _____ _____    ______ ____
ROOT
ATOM      1  O   HOH     1      44.858  18.939  14.281  0.00  0.00    +0.000 OA
ENDROOT
TORSDOF 0
REMARK  Name = ../refined-set-2016/2igv/2igv_pocket.pdb
REMARK  108 active torsions:
REMARK  status: ('A' for Active; 'I' for Inactive)
REMARK    1  A    between atoms: _1  and  _3
REMARK    2  A    between atoms: _3  and  _4
REMARK    3  A    between atoms: _3  and  _6
REMARK    4  A    between atoms: _6  and  _7
REMARK    5  A    between atoms: _12  and  _14
REMARK    6  A    between atoms: _14  and  _15
REMARK    7  A    between atoms: _14  and  _17
REMARK    8  A    between atoms: _17  and  _18
REMARK    9  A    between atoms: _18  and  _19
REMARK   10  A    between atoms: _19  and  _20
REMARK   11  A    between atoms: _29  and  _31
REMARK   12  A    between atoms: _31  and  _32
REMARK   13  A    between atoms: _31  and  _34
REMARK   14  A    between atoms: _34  and  _35
REMARK   15  A    between atoms: _38  and  _40
REMARK   16  A    between atoms: _40  and  _41
REMARK   17  A    between atoms: _40  and  _43
REMARK   18  A    between atoms: _43  and  _44
REMARK   19  A    between atoms: _47  and  _49
REMARK   20  A    between atoms: _49  and  _50
REMARK   21  A    between atoms: _49  and  _52
REMARK   22  A    between atoms: _52  and  _53
REMARK   23  A    between atoms: _59  and  _61
REMARK   24  A    between atoms: _61  and  _62
REMARK   25  A    between atoms: _61  and  _64
REMARK   26  A    between atoms: _64  and  _65
REMARK   27  A    between atoms: _65  and  _66
REMARK   28  A    between atoms: _68  and  _70
REMARK   29  A    between atoms: _70  and  _71
REMARK   30  A    between atoms: _70  and  _73
REMARK   31  A    between atoms: _73  and  _74
REMARK   32  A    between atoms: _77  and  _79
REMARK   33  A    between atoms: _79  and  _80
REMARK   34  A    between atoms: _79  and  _82
REMARK   35  A    between atoms: _82  and  _83
REMARK   36  A    between atoms: _83  and  _84
REMARK   37  A    between atoms: _89  and  _91
REMARK   38  A    between atoms: _91  and  _92
REMARK   39  A    between atoms: _94  and  _96
REMARK   40  A    between atoms: _96  and  _97
REMARK   41  A    between atoms: _96  and  _99
REMARK   42  A    between atoms: _99  and  _100
REMARK   43  A    between atoms: _105  and  _107
REMARK   44  A    between atoms: _107  and  _108
REMARK   45  A    between atoms: _107  and  _110
REMARK   46  A    between atoms: _110  and  _111
REMARK   47  A    between atoms: _113  and  _115
REMARK   48  A    between atoms: _115  and  _116
REMARK   49  A    between atoms: _115  and  _118
REMARK   50  A    between atoms: _118  and  _119
REMARK   51  A    between atoms: _119  and  _120
REMARK   52  A    between atoms: _122  and  _124
REMARK   53  A    between atoms: _124  and  _125
REMARK   54  A    between atoms: _128  and  _130
REMARK   55  A    between atoms: _130  and  _131
REMARK   56  A    between atoms: _130  and  _133
REMARK   57  A    between atoms: _133  and  _134
REMARK   58  A    between atoms: _139  and  _141
REMARK   59  A    between atoms: _141  and  _142
REMARK   60  A    between atoms: _145  and  _147
REMARK   61  A    between atoms: _147  and  _148
REMARK   62  A    between atoms: _150  and  _152
REMARK   63  A    between atoms: _152  and  _153
REMARK   64  A    between atoms: _152  and  _155
REMARK   65  A    between atoms: _155  and  _156
REMARK   66  A    between atoms: _159  and  _161
REMARK   67  A    between atoms: _161  and  _162
REMARK   68  A    between atoms: _161  and  _164
REMARK   69  A    between atoms: _164  and  _165
REMARK   70  A    between atoms: _165  and  _166
REMARK   71  A    between atoms: _171  and  _173
REMARK   72  A    between atoms: _173  and  _174
REMARK   73  A    between atoms: _173  and  _176
REMARK   74  A    between atoms: _176  and  _177
REMARK   75  A    between atoms: _183  and  _185
REMARK   76  A    between atoms: _185  and  _186
REMARK   77  A    between atoms: _185  and  _188
REMARK   78  A    between atoms: _188  and  _189
REMARK   79  A    between atoms: _195  and  _197
REMARK   80  A    between atoms: _197  and  _198
REMARK   81  A    between atoms: _197  and  _200
REMARK   82  A    between atoms: _200  and  _201
REMARK   83  A    between atoms: _204  and  _206
REMARK   84  A    between atoms: _206  and  _207
REMARK   85  A    between atoms: _206  and  _209
REMARK   86  A    between atoms: _211  and  _213
REMARK   87  A    between atoms: _213  and  _214
REMARK   88  A    between atoms: _213  and  _216
REMARK   89  A    between atoms: _216  and  _217
REMARK   90  A    between atoms: _220  and  _222
REMARK   91  A    between atoms: _222  and  _223
REMARK   92  A    between atoms: _222  and  _225
REMARK   93  A    between atoms: _225  and  _226
REMARK   94  A    between atoms: _236  and  _238
REMARK   95  A    between atoms: _238  and  _239
REMARK   96  A    between atoms: _238  and  _241
REMARK   97  A    between atoms: _241  and  _242
REMARK   98  A    between atoms: _245  and  _247
REMARK   99  A    between atoms: _247  and  _248
REMARK  100  A    between atoms: _247  and  _250
REMARK  101  A    between atoms: _250  and  _251
REMARK  102  A    between atoms: _251  and  _252
REMARK  103  A    between atoms: _252  and  _253
REMARK  104  A    between atoms: _253  and  _254
REMARK  105  A    between atoms: _258  and  _260
REMARK  106  A    between atoms: _260  and  _261
REMARK  107  A    between atoms: _260  and  _263
REMARK  108  A    between atoms: _263  and  _264
REMARK                            x       y       z     vdW  Elec       q    Type
REMARK                         _______ _______ _______ _____ _____    ______ ____
ROOT
ATOM      1  O   HOH     1      45.129  21.063  11.824  0.00  0.00    +0.000 OA
ENDROOT
TORSDOF 0
REMARK  Name = ../refined-set-2016/2igv/2igv_pocket.pdb
REMARK  108 active torsions:
REMARK  status: ('A' for Active; 'I' for Inactive)
REMARK    1  A    between atoms: _1  and  _3
REMARK    2  A    between atoms: _3  and  _4
REMARK    3  A    between atoms: _3  and  _6
REMARK    4  A    between atoms: _6  and  _7
REMARK    5  A    between atoms: _12  and  _14
REMARK    6  A    between atoms: _14  and  _15
REMARK    7  A    between atoms: _14  and  _17
REMARK    8  A    between atoms: _17  and  _18
REMARK    9  A    between atoms: _18  and  _19
REMARK   10  A    between atoms: _19  and  _20
REMARK   11  A    between atoms: _29  and  _31
REMARK   12  A    between atoms: _31  and  _32
REMARK   13  A    between atoms: _31  and  _34
REMARK   14  A    between atoms: _34  and  _35
REMARK   15  A    between atoms: _38  and  _40
REMARK   16  A    between atoms: _40  and  _41
REMARK   17  A    between atoms: _40  and  _43
REMARK   18  A    between atoms: _43  and  _44
REMARK   19  A    between atoms: _47  and  _49
REMARK   20  A    between atoms: _49  and  _50
REMARK   21  A    between atoms: _49  and  _52
REMARK   22  A    between atoms: _52  and  _53
REMARK   23  A    between atoms: _59  and  _61
REMARK   24  A    between atoms: _61  and  _62
REMARK   25  A    between atoms: _61  and  _64
REMARK   26  A    between atoms: _64  and  _65
REMARK   27  A    between atoms: _65  and  _66
REMARK   28  A    between atoms: _68  and  _70
REMARK   29  A    between atoms: _70  and  _71
REMARK   30  A    between atoms: _70  and  _73
REMARK   31  A    between atoms: _73  and  _74
REMARK   32  A    between atoms: _77  and  _79
REMARK   33  A    between atoms: _79  and  _80
REMARK   34  A    between atoms: _79  and  _82
REMARK   35  A    between atoms: _82  and  _83
REMARK   36  A    between atoms: _83  and  _84
REMARK   37  A    between atoms: _89  and  _91
REMARK   38  A    between atoms: _91  and  _92
REMARK   39  A    between atoms: _94  and  _96
REMARK   40  A    between atoms: _96  and  _97
REMARK   41  A    between atoms: _96  and  _99
REMARK   42  A    between atoms: _99  and  _100
REMARK   43  A    between atoms: _105  and  _107
REMARK   44  A    between atoms: _107  and  _108
REMARK   45  A    between atoms: _107  and  _110
REMARK   46  A    between atoms: _110  and  _111
REMARK   47  A    between atoms: _113  and  _115
REMARK   48  A    between atoms: _115  and  _116
REMARK   49  A    between atoms: _115  and  _118
REMARK   50  A    between atoms: _118  and  _119
REMARK   51  A    between atoms: _119  and  _120
REMARK   52  A    between atoms: _122  and  _124
REMARK   53  A    between atoms: _124  and  _125
REMARK   54  A    between atoms: _128  and  _130
REMARK   55  A    between atoms: _130  and  _131
REMARK   56  A    between atoms: _130  and  _133
REMARK   57  A    between atoms: _133  and  _134
REMARK   58  A    between atoms: _139  and  _141
REMARK   59  A    between atoms: _141  and  _142
REMARK   60  A    between atoms: _145  and  _147
REMARK   61  A    between atoms: _147  and  _148
REMARK   62  A    between atoms: _150  and  _152
REMARK   63  A    between atoms: _152  and  _153
REMARK   64  A    between atoms: _152  and  _155
REMARK   65  A    between atoms: _155  and  _156
REMARK   66  A    between atoms: _159  and  _161
REMARK   67  A    between atoms: _161  and  _162
REMARK   68  A    between atoms: _161  and  _164
REMARK   69  A    between atoms: _164  and  _165
REMARK   70  A    between atoms: _165  and  _166
REMARK   71  A    between atoms: _171  and  _173
REMARK   72  A    between atoms: _173  and  _174
REMARK   73  A    between atoms: _173  and  _176
REMARK   74  A    between atoms: _176  and  _177
REMARK   75  A    between atoms: _183  and  _185
REMARK   76  A    between atoms: _185  and  _186
REMARK   77  A    between atoms: _185  and  _188
REMARK   78  A    between atoms: _188  and  _189
REMARK   79  A    between atoms: _195  and  _197
REMARK   80  A    between atoms: _197  and  _198
REMARK   81  A    between atoms: _197  and  _200
REMARK   82  A    between atoms: _200  and  _201
REMARK   83  A    between atoms: _204  and  _206
REMARK   84  A    between atoms: _206  and  _207
REMARK   85  A    between atoms: _206  and  _209
REMARK   86  A    between atoms: _211  and  _213
REMARK   87  A    between atoms: _213  and  _214
REMARK   88  A    between atoms: _213  and  _216
REMARK   89  A    between atoms: _216  and  _217
REMARK   90  A    between atoms: _220  and  _222
REMARK   91  A    between atoms: _222  and  _223
REMARK   92  A    between atoms: _222  and  _225
REMARK   93  A    between atoms: _225  and  _226
REMARK   94  A    between atoms: _236  and  _238
REMARK   95  A    between atoms: _238  and  _239
REMARK   96  A    between atoms: _238  and  _241
REMARK   97  A    between atoms: _241  and  _242
REMARK   98  A    between atoms: _245  and  _247
REMARK   99  A    between atoms: _247  and  _248
REMARK  100  A    between atoms: _247  and  _250
REMARK  101  A    between atoms: _250  and  _251
REMARK  102  A    between atoms: _251  and  _252
REMARK  103  A    between atoms: _252  and  _253
REMARK  104  A    between atoms: _253  and  _254
REMARK  105  A    between atoms: _258  and  _260
REMARK  106  A    between atoms: _260  and  _261
REMARK  107  A    between atoms: _260  and  _263
REMARK  108  A    between atoms: _263  and  _264
REMARK                            x       y       z     vdW  Elec       q    Type
REMARK                         _______ _______ _______ _____ _____    ______ ____
ROOT
ATOM      1  O   HOH     1      46.325  13.399   8.562  0.00  0.00    +0.000 OA
ENDROOT
TORSDOF 0
REMARK  Name = ../refined-set-2016/2igv/2igv_pocket.pdb
REMARK  108 active torsions:
REMARK  status: ('A' for Active; 'I' for Inactive)
REMARK    1  A    between atoms: _1  and  _3
REMARK    2  A    between atoms: _3  and  _4
REMARK    3  A    between atoms: _3  and  _6
REMARK    4  A    between atoms: _6  and  _7
REMARK    5  A    between atoms: _12  and  _14
REMARK    6  A    between atoms: _14  and  _15
REMARK    7  A    between atoms: _14  and  _17
REMARK    8  A    between atoms: _17  and  _18
REMARK    9  A    between atoms: _18  and  _19
REMARK   10  A    between atoms: _19  and  _20
REMARK   11  A    between atoms: _29  and  _31
REMARK   12  A    between atoms: _31  and  _32
REMARK   13  A    between atoms: _31  and  _34
REMARK   14  A    between atoms: _34  and  _35
REMARK   15  A    between atoms: _38  and  _40
REMARK   16  A    between atoms: _40  and  _41
REMARK   17  A    between atoms: _40  and  _43
REMARK   18  A    between atoms: _43  and  _44
REMARK   19  A    between atoms: _47  and  _49
REMARK   20  A    between atoms: _49  and  _50
REMARK   21  A    between atoms: _49  and  _52
REMARK   22  A    between atoms: _52  and  _53
REMARK   23  A    between atoms: _59  and  _61
REMARK   24  A    between atoms: _61  and  _62
REMARK   25  A    between atoms: _61  and  _64
REMARK   26  A    between atoms: _64  and  _65
REMARK   27  A    between atoms: _65  and  _66
REMARK   28  A    between atoms: _68  and  _70
REMARK   29  A    between atoms: _70  and  _71
REMARK   30  A    between atoms: _70  and  _73
REMARK   31  A    between atoms: _73  and  _74
REMARK   32  A    between atoms: _77  and  _79
REMARK   33  A    between atoms: _79  and  _80
REMARK   34  A    between atoms: _79  and  _82
REMARK   35  A    between atoms: _82  and  _83
REMARK   36  A    between atoms: _83  and  _84
REMARK   37  A    between atoms: _89  and  _91
REMARK   38  A    between atoms: _91  and  _92
REMARK   39  A    between atoms: _94  and  _96
REMARK   40  A    between atoms: _96  and  _97
REMARK   41  A    between atoms: _96  and  _99
REMARK   42  A    between atoms: _99  and  _100
REMARK   43  A    between atoms: _105  and  _107
REMARK   44  A    between atoms: _107  and  _108
REMARK   45  A    between atoms: _107  and  _110
REMARK   46  A    between atoms: _110  and  _111
REMARK   47  A    between atoms: _113  and  _115
REMARK   48  A    between atoms: _115  and  _116
REMARK   49  A    between atoms: _115  and  _118
REMARK   50  A    between atoms: _118  and  _119
REMARK   51  A    between atoms: _119  and  _120
REMARK   52  A    between atoms: _122  and  _124
REMARK   53  A    between atoms: _124  and  _125
REMARK   54  A    between atoms: _128  and  _130
REMARK   55  A    between atoms: _130  and  _131
REMARK   56  A    between atoms: _130  and  _133
REMARK   57  A    between atoms: _133  and  _134
REMARK   58  A    between atoms: _139  and  _141
REMARK   59  A    between atoms: _141  and  _142
REMARK   60  A    between atoms: _145  and  _147
REMARK   61  A    between atoms: _147  and  _148
REMARK   62  A    between atoms: _150  and  _152
REMARK   63  A    between atoms: _152  and  _153
REMARK   64  A    between atoms: _152  and  _155
REMARK   65  A    between atoms: _155  and  _156
REMARK   66  A    between atoms: _159  and  _161
REMARK   67  A    between atoms: _161  and  _162
REMARK   68  A    between atoms: _161  and  _164
REMARK   69  A    between atoms: _164  and  _165
REMARK   70  A    between atoms: _165  and  _166
REMARK   71  A    between atoms: _171  and  _173
REMARK   72  A    between atoms: _173  and  _174
REMARK   73  A    between atoms: _173  and  _176
REMARK   74  A    between atoms: _176  and  _177
REMARK   75  A    between atoms: _183  and  _185
REMARK   76  A    between atoms: _185  and  _186
REMARK   77  A    between atoms: _185  and  _188
REMARK   78  A    between atoms: _188  and  _189
REMARK   79  A    between atoms: _195  and  _197
REMARK   80  A    between atoms: _197  and  _198
REMARK   81  A    between atoms: _197  and  _200
REMARK   82  A    between atoms: _200  and  _201
REMARK   83  A    between atoms: _204  and  _206
REMARK   84  A    between atoms: _206  and  _207
REMARK   85  A    between atoms: _206  and  _209
REMARK   86  A    between atoms: _211  and  _213
REMARK   87  A    between atoms: _213  and  _214
REMARK   88  A    between atoms: _213  and  _216
REMARK   89  A    between atoms: _216  and  _217
REMARK   90  A    between atoms: _220  and  _222
REMARK   91  A    between atoms: _222  and  _223
REMARK   92  A    between atoms: _222  and  _225
REMARK   93  A    between atoms: _225  and  _226
REMARK   94  A    between atoms: _236  and  _238
REMARK   95  A    between atoms: _238  and  _239
REMARK   96  A    between atoms: _238  and  _241
REMARK   97  A    between atoms: _241  and  _242
REMARK   98  A    between atoms: _245  and  _247
REMARK   99  A    between atoms: _247  and  _248
REMARK  100  A    between atoms: _247  and  _250
REMARK  101  A    between atoms: _250  and  _251
REMARK  102  A    between atoms: _251  and  _252
REMARK  103  A    between atoms: _252  and  _253
REMARK  104  A    between atoms: _253  and  _254
REMARK  105  A    between atoms: _258  and  _260
REMARK  106  A    between atoms: _260  and  _261
REMARK  107  A    between atoms: _260  and  _263
REMARK  108  A    between atoms: _263  and  _264
REMARK                            x       y       z     vdW  Elec       q    Type
REMARK                         _______ _______ _______ _____ _____    ______ ____
ROOT
ATOM      1  O   HOH     1      49.214  14.282   8.306  0.00  0.00    +0.000 OA
ENDROOT
TORSDOF 0
REMARK  Name = ../refined-set-2016/2igv/2igv_pocket.pdb
REMARK  108 active torsions:
REMARK  status: ('A' for Active; 'I' for Inactive)
REMARK    1  A    between atoms: _1  and  _3
REMARK    2  A    between atoms: _3  and  _4
REMARK    3  A    between atoms: _3  and  _6
REMARK    4  A    between atoms: _6  and  _7
REMARK    5  A    between atoms: _12  and  _14
REMARK    6  A    between atoms: _14  and  _15
REMARK    7  A    between atoms: _14  and  _17
REMARK    8  A    between atoms: _17  and  _18
REMARK    9  A    between atoms: _18  and  _19
REMARK   10  A    between atoms: _19  and  _20
REMARK   11  A    between atoms: _29  and  _31
REMARK   12  A    between atoms: _31  and  _32
REMARK   13  A    between atoms: _31  and  _34
REMARK   14  A    between atoms: _34  and  _35
REMARK   15  A    between atoms: _38  and  _40
REMARK   16  A    between atoms: _40  and  _41
REMARK   17  A    between atoms: _40  and  _43
REMARK   18  A    between atoms: _43  and  _44
REMARK   19  A    between atoms: _47  and  _49
REMARK   20  A    between atoms: _49  and  _50
REMARK   21  A    between atoms: _49  and  _52
REMARK   22  A    between atoms: _52  and  _53
REMARK   23  A    between atoms: _59  and  _61
REMARK   24  A    between atoms: _61  and  _62
REMARK   25  A    between atoms: _61  and  _64
REMARK   26  A    between atoms: _64  and  _65
REMARK   27  A    between atoms: _65  and  _66
REMARK   28  A    between atoms: _68  and  _70
REMARK   29  A    between atoms: _70  and  _71
REMARK   30  A    between atoms: _70  and  _73
REMARK   31  A    between atoms: _73  and  _74
REMARK   32  A    between atoms: _77  and  _79
REMARK   33  A    between atoms: _79  and  _80
REMARK   34  A    between atoms: _79  and  _82
REMARK   35  A    between atoms: _82  and  _83
REMARK   36  A    between atoms: _83  and  _84
REMARK   37  A    between atoms: _89  and  _91
REMARK   38  A    between atoms: _91  and  _92
REMARK   39  A    between atoms: _94  and  _96
REMARK   40  A    between atoms: _96  and  _97
REMARK   41  A    between atoms: _96  and  _99
REMARK   42  A    between atoms: _99  and  _100
REMARK   43  A    between atoms: _105  and  _107
REMARK   44  A    between atoms: _107  and  _108
REMARK   45  A    between atoms: _107  and  _110
REMARK   46  A    between atoms: _110  and  _111
REMARK   47  A    between atoms: _113  and  _115
REMARK   48  A    between atoms: _115  and  _116
REMARK   49  A    between atoms: _115  and  _118
REMARK   50  A    between atoms: _118  and  _119
REMARK   51  A    between atoms: _119  and  _120
REMARK   52  A    between atoms: _122  and  _124
REMARK   53  A    between atoms: _124  and  _125
REMARK   54  A    between atoms: _128  and  _130
REMARK   55  A    between atoms: _130  and  _131
REMARK   56  A    between atoms: _130  and  _133
REMARK   57  A    between atoms: _133  and  _134
REMARK   58  A    between atoms: _139  and  _141
REMARK   59  A    between atoms: _141  and  _142
REMARK   60  A    between atoms: _145  and  _147
REMARK   61  A    between atoms: _147  and  _148
REMARK   62  A    between atoms: _150  and  _152
REMARK   63  A    between atoms: _152  and  _153
REMARK   64  A    between atoms: _152  and  _155
REMARK   65  A    between atoms: _155  and  _156
REMARK   66  A    between atoms: _159  and  _161
REMARK   67  A    between atoms: _161  and  _162
REMARK   68  A    between atoms: _161  and  _164
REMARK   69  A    between atoms: _164  and  _165
REMARK   70  A    between atoms: _165  and  _166
REMARK   71  A    between atoms: _171  and  _173
REMARK   72  A    between atoms: _173  and  _174
REMARK   73  A    between atoms: _173  and  _176
REMARK   74  A    between atoms: _176  and  _177
REMARK   75  A    between atoms: _183  and  _185
REMARK   76  A    between atoms: _185  and  _186
REMARK   77  A    between atoms: _185  and  _188
REMARK   78  A    between atoms: _188  and  _189
REMARK   79  A    between atoms: _195  and  _197
REMARK   80  A    between atoms: _197  and  _198
REMARK   81  A    between atoms: _197  and  _200
REMARK   82  A    between atoms: _200  and  _201
REMARK   83  A    between atoms: _204  and  _206
REMARK   84  A    between atoms: _206  and  _207
REMARK   85  A    between atoms: _206  and  _209
REMARK   86  A    between atoms: _211  and  _213
REMARK   87  A    between atoms: _213  and  _214
REMARK   88  A    between atoms: _213  and  _216
REMARK   89  A    between atoms: _216  and  _217
REMARK   90  A    between atoms: _220  and  _222
REMARK   91  A    between atoms: _222  and  _223
REMARK   92  A    between atoms: _222  and  _225
REMARK   93  A    between atoms: _225  and  _226
REMARK   94  A    between atoms: _236  and  _238
REMARK   95  A    between atoms: _238  and  _239
REMARK   96  A    between atoms: _238  and  _241
REMARK   97  A    between atoms: _241  and  _242
REMARK   98  A    between atoms: _245  and  _247
REMARK   99  A    between atoms: _247  and  _248
REMARK  100  A    between atoms: _247  and  _250
REMARK  101  A    between atoms: _250  and  _251
REMARK  102  A    between atoms: _251  and  _252
REMARK  103  A    between atoms: _252  and  _253
REMARK  104  A    between atoms: _253  and  _254
REMARK  105  A    between atoms: _258  and  _260
REMARK  106  A    between atoms: _260  and  _261
REMARK  107  A    between atoms: _260  and  _263
REMARK  108  A    between atoms: _263  and  _264
REMARK                            x       y       z     vdW  Elec       q    Type
REMARK                         _______ _______ _______ _____ _____    ______ ____
ROOT
ATOM      1  O   HOH     1      50.025  12.892  10.929  0.00  0.00    +0.000 OA
ENDROOT
TORSDOF 0
REMARK  Name = ../refined-set-2016/2igv/2igv_pocket.pdb
REMARK  108 active torsions:
REMARK  status: ('A' for Active; 'I' for Inactive)
REMARK    1  A    between atoms: _1  and  _3
REMARK    2  A    between atoms: _3  and  _4
REMARK    3  A    between atoms: _3  and  _6
REMARK    4  A    between atoms: _6  and  _7
REMARK    5  A    between atoms: _12  and  _14
REMARK    6  A    between atoms: _14  and  _15
REMARK    7  A    between atoms: _14  and  _17
REMARK    8  A    between atoms: _17  and  _18
REMARK    9  A    between atoms: _18  and  _19
REMARK   10  A    between atoms: _19  and  _20
REMARK   11  A    between atoms: _29  and  _31
REMARK   12  A    between atoms: _31  and  _32
REMARK   13  A    between atoms: _31  and  _34
REMARK   14  A    between atoms: _34  and  _35
REMARK   15  A    between atoms: _38  and  _40
REMARK   16  A    between atoms: _40  and  _41
REMARK   17  A    between atoms: _40  and  _43
REMARK   18  A    between atoms: _43  and  _44
REMARK   19  A    between atoms: _47  and  _49
REMARK   20  A    between atoms: _49  and  _50
REMARK   21  A    between atoms: _49  and  _52
REMARK   22  A    between atoms: _52  and  _53
REMARK   23  A    between atoms: _59  and  _61
REMARK   24  A    between atoms: _61  and  _62
REMARK   25  A    between atoms: _61  and  _64
REMARK   26  A    between atoms: _64  and  _65
REMARK   27  A    between atoms: _65  and  _66
REMARK   28  A    between atoms: _68  and  _70
REMARK   29  A    between atoms: _70  and  _71
REMARK   30  A    between atoms: _70  and  _73
REMARK   31  A    between atoms: _73  and  _74
REMARK   32  A    between atoms: _77  and  _79
REMARK   33  A    between atoms: _79  and  _80
REMARK   34  A    between atoms: _79  and  _82
REMARK   35  A    between atoms: _82  and  _83
REMARK   36  A    between atoms: _83  and  _84
REMARK   37  A    between atoms: _89  and  _91
REMARK   38  A    between atoms: _91  and  _92
REMARK   39  A    between atoms: _94  and  _96
REMARK   40  A    between atoms: _96  and  _97
REMARK   41  A    between atoms: _96  and  _99
REMARK   42  A    between atoms: _99  and  _100
REMARK   43  A    between atoms: _105  and  _107
REMARK   44  A    between atoms: _107  and  _108
REMARK   45  A    between atoms: _107  and  _110
REMARK   46  A    between atoms: _110  and  _111
REMARK   47  A    between atoms: _113  and  _115
REMARK   48  A    between atoms: _115  and  _116
REMARK   49  A    between atoms: _115  and  _118
REMARK   50  A    between atoms: _118  and  _119
REMARK   51  A    between atoms: _119  and  _120
REMARK   52  A    between atoms: _122  and  _124
REMARK   53  A    between atoms: _124  and  _125
REMARK   54  A    between atoms: _128  and  _130
REMARK   55  A    between atoms: _130  and  _131
REMARK   56  A    between atoms: _130  and  _133
REMARK   57  A    between atoms: _133  and  _134
REMARK   58  A    between atoms: _139  and  _141
REMARK   59  A    between atoms: _141  and  _142
REMARK   60  A    between atoms: _145  and  _147
REMARK   61  A    between atoms: _147  and  _148
REMARK   62  A    between atoms: _150  and  _152
REMARK   63  A    between atoms: _152  and  _153
REMARK   64  A    between atoms: _152  and  _155
REMARK   65  A    between atoms: _155  and  _156
REMARK   66  A    between atoms: _159  and  _161
REMARK   67  A    between atoms: _161  and  _162
REMARK   68  A    between atoms: _161  and  _164
REMARK   69  A    between atoms: _164  and  _165
REMARK   70  A    between atoms: _165  and  _166
REMARK   71  A    between atoms: _171  and  _173
REMARK   72  A    between atoms: _173  and  _174
REMARK   73  A    between atoms: _173  and  _176
REMARK   74  A    between atoms: _176  and  _177
REMARK   75  A    between atoms: _183  and  _185
REMARK   76  A    between atoms: _185  and  _186
REMARK   77  A    between atoms: _185  and  _188
REMARK   78  A    between atoms: _188  and  _189
REMARK   79  A    between atoms: _195  and  _197
REMARK   80  A    between atoms: _197  and  _198
REMARK   81  A    between atoms: _197  and  _200
REMARK   82  A    between atoms: _200  and  _201
REMARK   83  A    between atoms: _204  and  _206
REMARK   84  A    between atoms: _206  and  _207
REMARK   85  A    between atoms: _206  and  _209
REMARK   86  A    between atoms: _211  and  _213
REMARK   87  A    between atoms: _213  and  _214
REMARK   88  A    between atoms: _213  and  _216
REMARK   89  A    between atoms: _216  and  _217
REMARK   90  A    between atoms: _220  and  _222
REMARK   91  A    between atoms: _222  and  _223
REMARK   92  A    between atoms: _222  and  _225
REMARK   93  A    between atoms: _225  and  _226
REMARK   94  A    between atoms: _236  and  _238
REMARK   95  A    between atoms: _238  and  _239
REMARK   96  A    between atoms: _238  and  _241
REMARK   97  A    between atoms: _241  and  _242
REMARK   98  A    between atoms: _245  and  _247
REMARK   99  A    between atoms: _247  and  _248
REMARK  100  A    between atoms: _247  and  _250
REMARK  101  A    between atoms: _250  and  _251
REMARK  102  A    between atoms: _251  and  _252
REMARK  103  A    between atoms: _252  and  _253
REMARK  104  A    between atoms: _253  and  _254
REMARK  105  A    between atoms: _258  and  _260
REMARK  106  A    between atoms: _260  and  _261
REMARK  107  A    between atoms: _260  and  _263
REMARK  108  A    between atoms: _263  and  _264
REMARK                            x       y       z     vdW  Elec       q    Type
REMARK                         _______ _______ _______ _____ _____    ______ ____
ROOT
ATOM      1  O   HOH     1      47.610  12.862  17.400  0.00  0.00    +0.000 OA
ENDROOT
TORSDOF 0
REMARK  Name = ../refined-set-2016/2igv/2igv_pocket.pdb
REMARK  108 active torsions:
REMARK  status: ('A' for Active; 'I' for Inactive)
REMARK    1  A    between atoms: _1  and  _3
REMARK    2  A    between atoms: _3  and  _4
REMARK    3  A    between atoms: _3  and  _6
REMARK    4  A    between atoms: _6  and  _7
REMARK    5  A    between atoms: _12  and  _14
REMARK    6  A    between atoms: _14  and  _15
REMARK    7  A    between atoms: _14  and  _17
REMARK    8  A    between atoms: _17  and  _18
REMARK    9  A    between atoms: _18  and  _19
REMARK   10  A    between atoms: _19  and  _20
REMARK   11  A    between atoms: _29  and  _31
REMARK   12  A    between atoms: _31  and  _32
REMARK   13  A    between atoms: _31  and  _34
REMARK   14  A    between atoms: _34  and  _35
REMARK   15  A    between atoms: _38  and  _40
REMARK   16  A    between atoms: _40  and  _41
REMARK   17  A    between atoms: _40  and  _43
REMARK   18  A    between atoms: _43  and  _44
REMARK   19  A    between atoms: _47  and  _49
REMARK   20  A    between atoms: _49  and  _50
REMARK   21  A    between atoms: _49  and  _52
REMARK   22  A    between atoms: _52  and  _53
REMARK   23  A    between atoms: _59  and  _61
REMARK   24  A    between atoms: _61  and  _62
REMARK   25  A    between atoms: _61  and  _64
REMARK   26  A    between atoms: _64  and  _65
REMARK   27  A    between atoms: _65  and  _66
REMARK   28  A    between atoms: _68  and  _70
REMARK   29  A    between atoms: _70  and  _71
REMARK   30  A    between atoms: _70  and  _73
REMARK   31  A    between atoms: _73  and  _74
REMARK   32  A    between atoms: _77  and  _79
REMARK   33  A    between atoms: _79  and  _80
REMARK   34  A    between atoms: _79  and  _82
REMARK   35  A    between atoms: _82  and  _83
REMARK   36  A    between atoms: _83  and  _84
REMARK   37  A    between atoms: _89  and  _91
REMARK   38  A    between atoms: _91  and  _92
REMARK   39  A    between atoms: _94  and  _96
REMARK   40  A    between atoms: _96  and  _97
REMARK   41  A    between atoms: _96  and  _99
REMARK   42  A    between atoms: _99  and  _100
REMARK   43  A    between atoms: _105  and  _107
REMARK   44  A    between atoms: _107  and  _108
REMARK   45  A    between atoms: _107  and  _110
REMARK   46  A    between atoms: _110  and  _111
REMARK   47  A    between atoms: _113  and  _115
REMARK   48  A    between atoms: _115  and  _116
REMARK   49  A    between atoms: _115  and  _118
REMARK   50  A    between atoms: _118  and  _119
REMARK   51  A    between atoms: _119  and  _120
REMARK   52  A    between atoms: _122  and  _124
REMARK   53  A    between atoms: _124  and  _125
REMARK   54  A    between atoms: _128  and  _130
REMARK   55  A    between atoms: _130  and  _131
REMARK   56  A    between atoms: _130  and  _133
REMARK   57  A    between atoms: _133  and  _134
REMARK   58  A    between atoms: _139  and  _141
REMARK   59  A    between atoms: _141  and  _142
REMARK   60  A    between atoms: _145  and  _147
REMARK   61  A    between atoms: _147  and  _148
REMARK   62  A    between atoms: _150  and  _152
REMARK   63  A    between atoms: _152  and  _153
REMARK   64  A    between atoms: _152  and  _155
REMARK   65  A    between atoms: _155  and  _156
REMARK   66  A    between atoms: _159  and  _161
REMARK   67  A    between atoms: _161  and  _162
REMARK   68  A    between atoms: _161  and  _164
REMARK   69  A    between atoms: _164  and  _165
REMARK   70  A    between atoms: _165  and  _166
REMARK   71  A    between atoms: _171  and  _173
REMARK   72  A    between atoms: _173  and  _174
REMARK   73  A    between atoms: _173  and  _176
REMARK   74  A    between atoms: _176  and  _177
REMARK   75  A    between atoms: _183  and  _185
REMARK   76  A    between atoms: _185  and  _186
REMARK   77  A    between atoms: _185  and  _188
REMARK   78  A    between atoms: _188  and  _189
REMARK   79  A    between atoms: _195  and  _197
REMARK   80  A    between atoms: _197  and  _198
REMARK   81  A    between atoms: _197  and  _200
REMARK   82  A    between atoms: _200  and  _201
REMARK   83  A    between atoms: _204  and  _206
REMARK   84  A    between atoms: _206  and  _207
REMARK   85  A    between atoms: _206  and  _209
REMARK   86  A    between atoms: _211  and  _213
REMARK   87  A    between atoms: _213  and  _214
REMARK   88  A    between atoms: _213  and  _216
REMARK   89  A    between atoms: _216  and  _217
REMARK   90  A    between atoms: _220  and  _222
REMARK   91  A    between atoms: _222  and  _223
REMARK   92  A    between atoms: _222  and  _225
REMARK   93  A    between atoms: _225  and  _226
REMARK   94  A    between atoms: _236  and  _238
REMARK   95  A    between atoms: _238  and  _239
REMARK   96  A    between atoms: _238  and  _241
REMARK   97  A    between atoms: _241  and  _242
REMARK   98  A    between atoms: _245  and  _247
REMARK   99  A    between atoms: _247  and  _248
REMARK  100  A    between atoms: _247  and  _250
REMARK  101  A    between atoms: _250  and  _251
REMARK  102  A    between atoms: _251  and  _252
REMARK  103  A    between atoms: _252  and  _253
REMARK  104  A    between atoms: _253  and  _254
REMARK  105  A    between atoms: _258  and  _260
REMARK  106  A    between atoms: _260  and  _261
REMARK  107  A    between atoms: _260  and  _263
REMARK  108  A    between atoms: _263  and  _264
REMARK                            x       y       z     vdW  Elec       q    Type
REMARK                         _______ _______ _______ _____ _____    ______ ____
ROOT
ATOM      1  O   HOH     1      43.563  16.273  14.109  0.00  0.00    +0.000 OA
ENDROOT
TORSDOF 0
REMARK  Name = ../refined-set-2016/2igv/2igv_pocket.pdb
REMARK  108 active torsions:
REMARK  status: ('A' for Active; 'I' for Inactive)
REMARK    1  A    between atoms: _1  and  _3
REMARK    2  A    between atoms: _3  and  _4
REMARK    3  A    between atoms: _3  and  _6
REMARK    4  A    between atoms: _6  and  _7
REMARK    5  A    between atoms: _12  and  _14
REMARK    6  A    between atoms: _14  and  _15
REMARK    7  A    between atoms: _14  and  _17
REMARK    8  A    between atoms: _17  and  _18
REMARK    9  A    between atoms: _18  and  _19
REMARK   10  A    between atoms: _19  and  _20
REMARK   11  A    between atoms: _29  and  _31
REMARK   12  A    between atoms: _31  and  _32
REMARK   13  A    between atoms: _31  and  _34
REMARK   14  A    between atoms: _34  and  _35
REMARK   15  A    between atoms: _38  and  _40
REMARK   16  A    between atoms: _40  and  _41
REMARK   17  A    between atoms: _40  and  _43
REMARK   18  A    between atoms: _43  and  _44
REMARK   19  A    between atoms: _47  and  _49
REMARK   20  A    between atoms: _49  and  _50
REMARK   21  A    between atoms: _49  and  _52
REMARK   22  A    between atoms: _52  and  _53
REMARK   23  A    between atoms: _59  and  _61
REMARK   24  A    between atoms: _61  and  _62
REMARK   25  A    between atoms: _61  and  _64
REMARK   26  A    between atoms: _64  and  _65
REMARK   27  A    between atoms: _65  and  _66
REMARK   28  A    between atoms: _68  and  _70
REMARK   29  A    between atoms: _70  and  _71
REMARK   30  A    between atoms: _70  and  _73
REMARK   31  A    between atoms: _73  and  _74
REMARK   32  A    between atoms: _77  and  _79
REMARK   33  A    between atoms: _79  and  _80
REMARK   34  A    between atoms: _79  and  _82
REMARK   35  A    between atoms: _82  and  _83
REMARK   36  A    between atoms: _83  and  _84
REMARK   37  A    between atoms: _89  and  _91
REMARK   38  A    between atoms: _91  and  _92
REMARK   39  A    between atoms: _94  and  _96
REMARK   40  A    between atoms: _96  and  _97
REMARK   41  A    between atoms: _96  and  _99
REMARK   42  A    between atoms: _99  and  _100
REMARK   43  A    between atoms: _105  and  _107
REMARK   44  A    between atoms: _107  and  _108
REMARK   45  A    between atoms: _107  and  _110
REMARK   46  A    between atoms: _110  and  _111
REMARK   47  A    between atoms: _113  and  _115
REMARK   48  A    between atoms: _115  and  _116
REMARK   49  A    between atoms: _115  and  _118
REMARK   50  A    between atoms: _118  and  _119
REMARK   51  A    between atoms: _119  and  _120
REMARK   52  A    between atoms: _122  and  _124
REMARK   53  A    between atoms: _124  and  _125
REMARK   54  A    between atoms: _128  and  _130
REMARK   55  A    between atoms: _130  and  _131
REMARK   56  A    between atoms: _130  and  _133
REMARK   57  A    between atoms: _133  and  _134
REMARK   58  A    between atoms: _139  and  _141
REMARK   59  A    between atoms: _141  and  _142
REMARK   60  A    between atoms: _145  and  _147
REMARK   61  A    between atoms: _147  and  _148
REMARK   62  A    between atoms: _150  and  _152
REMARK   63  A    between atoms: _152  and  _153
REMARK   64  A    between atoms: _152  and  _155
REMARK   65  A    between atoms: _155  and  _156
REMARK   66  A    between atoms: _159  and  _161
REMARK   67  A    between atoms: _161  and  _162
REMARK   68  A    between atoms: _161  and  _164
REMARK   69  A    between atoms: _164  and  _165
REMARK   70  A    between atoms: _165  and  _166
REMARK   71  A    between atoms: _171  and  _173
REMARK   72  A    between atoms: _173  and  _174
REMARK   73  A    between atoms: _173  and  _176
REMARK   74  A    between atoms: _176  and  _177
REMARK   75  A    between atoms: _183  and  _185
REMARK   76  A    between atoms: _185  and  _186
REMARK   77  A    between atoms: _185  and  _188
REMARK   78  A    between atoms: _188  and  _189
REMARK   79  A    between atoms: _195  and  _197
REMARK   80  A    between atoms: _197  and  _198
REMARK   81  A    between atoms: _197  and  _200
REMARK   82  A    between atoms: _200  and  _201
REMARK   83  A    between atoms: _204  and  _206
REMARK   84  A    between atoms: _206  and  _207
REMARK   85  A    between atoms: _206  and  _209
REMARK   86  A    between atoms: _211  and  _213
REMARK   87  A    between atoms: _213  and  _214
REMARK   88  A    between atoms: _213  and  _216
REMARK   89  A    between atoms: _216  and  _217
REMARK   90  A    between atoms: _220  and  _222
REMARK   91  A    between atoms: _222  and  _223
REMARK   92  A    between atoms: _222  and  _225
REMARK   93  A    between atoms: _225  and  _226
REMARK   94  A    between atoms: _236  and  _238
REMARK   95  A    between atoms: _238  and  _239
REMARK   96  A    between atoms: _238  and  _241
REMARK   97  A    between atoms: _241  and  _242
REMARK   98  A    between atoms: _245  and  _247
REMARK   99  A    between atoms: _247  and  _248
REMARK  100  A    between atoms: _247  and  _250
REMARK  101  A    between atoms: _250  and  _251
REMARK  102  A    between atoms: _251  and  _252
REMARK  103  A    between atoms: _252  and  _253
REMARK  104  A    between atoms: _253  and  _254
REMARK  105  A    between atoms: _258  and  _260
REMARK  106  A    between atoms: _260  and  _261
REMARK  107  A    between atoms: _260  and  _263
REMARK  108  A    between atoms: _263  and  _264
REMARK                            x       y       z     vdW  Elec       q    Type
REMARK                         _______ _______ _______ _____ _____    ______ ____
ROOT
ATOM      1  O   HOH     1      46.974  12.648  13.967  0.00  0.00    +0.000 OA
ENDROOT
TORSDOF 0
REMARK  Name = ../refined-set-2016/2igv/2igv_pocket.pdb
REMARK  108 active torsions:
REMARK  status: ('A' for Active; 'I' for Inactive)
REMARK    1  A    between atoms: _1  and  _3
REMARK    2  A    between atoms: _3  and  _4
REMARK    3  A    between atoms: _3  and  _6
REMARK    4  A    between atoms: _6  and  _7
REMARK    5  A    between atoms: _12  and  _14
REMARK    6  A    between atoms: _14  and  _15
REMARK    7  A    between atoms: _14  and  _17
REMARK    8  A    between atoms: _17  and  _18
REMARK    9  A    between atoms: _18  and  _19
REMARK   10  A    between atoms: _19  and  _20
REMARK   11  A    between atoms: _29  and  _31
REMARK   12  A    between atoms: _31  and  _32
REMARK   13  A    between atoms: _31  and  _34
REMARK   14  A    between atoms: _34  and  _35
REMARK   15  A    between atoms: _38  and  _40
REMARK   16  A    between atoms: _40  and  _41
REMARK   17  A    between atoms: _40  and  _43
REMARK   18  A    between atoms: _43  and  _44
REMARK   19  A    between atoms: _47  and  _49
REMARK   20  A    between atoms: _49  and  _50
REMARK   21  A    between atoms: _49  and  _52
REMARK   22  A    between atoms: _52  and  _53
REMARK   23  A    between atoms: _59  and  _61
REMARK   24  A    between atoms: _61  and  _62
REMARK   25  A    between atoms: _61  and  _64
REMARK   26  A    between atoms: _64  and  _65
REMARK   27  A    between atoms: _65  and  _66
REMARK   28  A    between atoms: _68  and  _70
REMARK   29  A    between atoms: _70  and  _71
REMARK   30  A    between atoms: _70  and  _73
REMARK   31  A    between atoms: _73  and  _74
REMARK   32  A    between atoms: _77  and  _79
REMARK   33  A    between atoms: _79  and  _80
REMARK   34  A    between atoms: _79  and  _82
REMARK   35  A    between atoms: _82  and  _83
REMARK   36  A    between atoms: _83  and  _84
REMARK   37  A    between atoms: _89  and  _91
REMARK   38  A    between atoms: _91  and  _92
REMARK   39  A    between atoms: _94  and  _96
REMARK   40  A    between atoms: _96  and  _97
REMARK   41  A    between atoms: _96  and  _99
REMARK   42  A    between atoms: _99  and  _100
REMARK   43  A    between atoms: _105  and  _107
REMARK   44  A    between atoms: _107  and  _108
REMARK   45  A    between atoms: _107  and  _110
REMARK   46  A    between atoms: _110  and  _111
REMARK   47  A    between atoms: _113  and  _115
REMARK   48  A    between atoms: _115  and  _116
REMARK   49  A    between atoms: _115  and  _118
REMARK   50  A    between atoms: _118  and  _119
REMARK   51  A    between atoms: _119  and  _120
REMARK   52  A    between atoms: _122  and  _124
REMARK   53  A    between atoms: _124  and  _125
REMARK   54  A    between atoms: _128  and  _130
REMARK   55  A    between atoms: _130  and  _131
REMARK   56  A    between atoms: _130  and  _133
REMARK   57  A    between atoms: _133  and  _134
REMARK   58  A    between atoms: _139  and  _141
REMARK   59  A    between atoms: _141  and  _142
REMARK   60  A    between atoms: _145  and  _147
REMARK   61  A    between atoms: _147  and  _148
REMARK   62  A    between atoms: _150  and  _152
REMARK   63  A    between atoms: _152  and  _153
REMARK   64  A    between atoms: _152  and  _155
REMARK   65  A    between atoms: _155  and  _156
REMARK   66  A    between atoms: _159  and  _161
REMARK   67  A    between atoms: _161  and  _162
REMARK   68  A    between atoms: _161  and  _164
REMARK   69  A    between atoms: _164  and  _165
REMARK   70  A    between atoms: _165  and  _166
REMARK   71  A    between atoms: _171  and  _173
REMARK   72  A    between atoms: _173  and  _174
REMARK   73  A    between atoms: _173  and  _176
REMARK   74  A    between atoms: _176  and  _177
REMARK   75  A    between atoms: _183  and  _185
REMARK   76  A    between atoms: _185  and  _186
REMARK   77  A    between atoms: _185  and  _188
REMARK   78  A    between atoms: _188  and  _189
REMARK   79  A    between atoms: _195  and  _197
REMARK   80  A    between atoms: _197  and  _198
REMARK   81  A    between atoms: _197  and  _200
REMARK   82  A    between atoms: _200  and  _201
REMARK   83  A    between atoms: _204  and  _206
REMARK   84  A    between atoms: _206  and  _207
REMARK   85  A    between atoms: _206  and  _209
REMARK   86  A    between atoms: _211  and  _213
REMARK   87  A    between atoms: _213  and  _214
REMARK   88  A    between atoms: _213  and  _216
REMARK   89  A    between atoms: _216  and  _217
REMARK   90  A    between atoms: _220  and  _222
REMARK   91  A    between atoms: _222  and  _223
REMARK   92  A    between atoms: _222  and  _225
REMARK   93  A    between atoms: _225  and  _226
REMARK   94  A    between atoms: _236  and  _238
REMARK   95  A    between atoms: _238  and  _239
REMARK   96  A    between atoms: _238  and  _241
REMARK   97  A    between atoms: _241  and  _242
REMARK   98  A    between atoms: _245  and  _247
REMARK   99  A    between atoms: _247  and  _248
REMARK  100  A    between atoms: _247  and  _250
REMARK  101  A    between atoms: _250  and  _251
REMARK  102  A    between atoms: _251  and  _252
REMARK  103  A    between atoms: _252  and  _253
REMARK  104  A    between atoms: _253  and  _254
REMARK  105  A    between atoms: _258  and  _260
REMARK  106  A    between atoms: _260  and  _261
REMARK  107  A    between atoms: _260  and  _263
REMARK  108  A    between atoms: _263  and  _264
REMARK                            x       y       z     vdW  Elec       q    Type
REMARK                         _______ _______ _______ _____ _____    ______ ____
ROOT
ATOM      1  O   HOH     1      45.121  13.995  13.894  0.00  0.00    +0.000 OA
ENDROOT
TORSDOF 0
REMARK  Name = ../refined-set-2016/2igv/2igv_pocket.pdb
REMARK  108 active torsions:
REMARK  status: ('A' for Active; 'I' for Inactive)
REMARK    1  A    between atoms: _1  and  _3
REMARK    2  A    between atoms: _3  and  _4
REMARK    3  A    between atoms: _3  and  _6
REMARK    4  A    between atoms: _6  and  _7
REMARK    5  A    between atoms: _12  and  _14
REMARK    6  A    between atoms: _14  and  _15
REMARK    7  A    between atoms: _14  and  _17
REMARK    8  A    between atoms: _17  and  _18
REMARK    9  A    between atoms: _18  and  _19
REMARK   10  A    between atoms: _19  and  _20
REMARK   11  A    between atoms: _29  and  _31
REMARK   12  A    between atoms: _31  and  _32
REMARK   13  A    between atoms: _31  and  _34
REMARK   14  A    between atoms: _34  and  _35
REMARK   15  A    between atoms: _38  and  _40
REMARK   16  A    between atoms: _40  and  _41
REMARK   17  A    between atoms: _40  and  _43
REMARK   18  A    between atoms: _43  and  _44
REMARK   19  A    between atoms: _47  and  _49
REMARK   20  A    between atoms: _49  and  _50
REMARK   21  A    between atoms: _49  and  _52
REMARK   22  A    between atoms: _52  and  _53
REMARK   23  A    between atoms: _59  and  _61
REMARK   24  A    between atoms: _61  and  _62
REMARK   25  A    between atoms: _61  and  _64
REMARK   26  A    between atoms: _64  and  _65
REMARK   27  A    between atoms: _65  and  _66
REMARK   28  A    between atoms: _68  and  _70
REMARK   29  A    between atoms: _70  and  _71
REMARK   30  A    between atoms: _70  and  _73
REMARK   31  A    between atoms: _73  and  _74
REMARK   32  A    between atoms: _77  and  _79
REMARK   33  A    between atoms: _79  and  _80
REMARK   34  A    between atoms: _79  and  _82
REMARK   35  A    between atoms: _82  and  _83
REMARK   36  A    between atoms: _83  and  _84
REMARK   37  A    between atoms: _89  and  _91
REMARK   38  A    between atoms: _91  and  _92
REMARK   39  A    between atoms: _94  and  _96
REMARK   40  A    between atoms: _96  and  _97
REMARK   41  A    between atoms: _96  and  _99
REMARK   42  A    between atoms: _99  and  _100
REMARK   43  A    between atoms: _105  and  _107
REMARK   44  A    between atoms: _107  and  _108
REMARK   45  A    between atoms: _107  and  _110
REMARK   46  A    between atoms: _110  and  _111
REMARK   47  A    between atoms: _113  and  _115
REMARK   48  A    between atoms: _115  and  _116
REMARK   49  A    between atoms: _115  and  _118
REMARK   50  A    between atoms: _118  and  _119
REMARK   51  A    between atoms: _119  and  _120
REMARK   52  A    between atoms: _122  and  _124
REMARK   53  A    between atoms: _124  and  _125
REMARK   54  A    between atoms: _128  and  _130
REMARK   55  A    between atoms: _130  and  _131
REMARK   56  A    between atoms: _130  and  _133
REMARK   57  A    between atoms: _133  and  _134
REMARK   58  A    between atoms: _139  and  _141
REMARK   59  A    between atoms: _141  and  _142
REMARK   60  A    between atoms: _145  and  _147
REMARK   61  A    between atoms: _147  and  _148
REMARK   62  A    between atoms: _150  and  _152
REMARK   63  A    between atoms: _152  and  _153
REMARK   64  A    between atoms: _152  and  _155
REMARK   65  A    between atoms: _155  and  _156
REMARK   66  A    between atoms: _159  and  _161
REMARK   67  A    between atoms: _161  and  _162
REMARK   68  A    between atoms: _161  and  _164
REMARK   69  A    between atoms: _164  and  _165
REMARK   70  A    between atoms: _165  and  _166
REMARK   71  A    between atoms: _171  and  _173
REMARK   72  A    between atoms: _173  and  _174
REMARK   73  A    between atoms: _173  and  _176
REMARK   74  A    between atoms: _176  and  _177
REMARK   75  A    between atoms: _183  and  _185
REMARK   76  A    between atoms: _185  and  _186
REMARK   77  A    between atoms: _185  and  _188
REMARK   78  A    between atoms: _188  and  _189
REMARK   79  A    between atoms: _195  and  _197
REMARK   80  A    between atoms: _197  and  _198
REMARK   81  A    between atoms: _197  and  _200
REMARK   82  A    between atoms: _200  and  _201
REMARK   83  A    between atoms: _204  and  _206
REMARK   84  A    between atoms: _206  and  _207
REMARK   85  A    between atoms: _206  and  _209
REMARK   86  A    between atoms: _211  and  _213
REMARK   87  A    between atoms: _213  and  _214
REMARK   88  A    between atoms: _213  and  _216
REMARK   89  A    between atoms: _216  and  _217
REMARK   90  A    between atoms: _220  and  _222
REMARK   91  A    between atoms: _222  and  _223
REMARK   92  A    between atoms: _222  and  _225
REMARK   93  A    between atoms: _225  and  _226
REMARK   94  A    between atoms: _236  and  _238
REMARK   95  A    between atoms: _238  and  _239
REMARK   96  A    between atoms: _238  and  _241
REMARK   97  A    between atoms: _241  and  _242
REMARK   98  A    between atoms: _245  and  _247
REMARK   99  A    between atoms: _247  and  _248
REMARK  100  A    between atoms: _247  and  _250
REMARK  101  A    between atoms: _250  and  _251
REMARK  102  A    between atoms: _251  and  _252
REMARK  103  A    between atoms: _252  and  _253
REMARK  104  A    between atoms: _253  and  _254
REMARK  105  A    between atoms: _258  and  _260
REMARK  106  A    between atoms: _260  and  _261
REMARK  107  A    between atoms: _260  and  _263
REMARK  108  A    between atoms: _263  and  _264
REMARK                            x       y       z     vdW  Elec       q    Type
REMARK                         _______ _______ _______ _____ _____    ______ ____
ROOT
ATOM      1  O   HOH     1      44.114  14.147   8.601  0.00  0.00    +0.000 OA
ENDROOT
TORSDOF 0
REMARK  Name = ../refined-set-2016/2igv/2igv_pocket.pdb
REMARK  108 active torsions:
REMARK  status: ('A' for Active; 'I' for Inactive)
REMARK    1  A    between atoms: _1  and  _3
REMARK    2  A    between atoms: _3  and  _4
REMARK    3  A    between atoms: _3  and  _6
REMARK    4  A    between atoms: _6  and  _7
REMARK    5  A    between atoms: _12  and  _14
REMARK    6  A    between atoms: _14  and  _15
REMARK    7  A    between atoms: _14  and  _17
REMARK    8  A    between atoms: _17  and  _18
REMARK    9  A    between atoms: _18  and  _19
REMARK   10  A    between atoms: _19  and  _20
REMARK   11  A    between atoms: _29  and  _31
REMARK   12  A    between atoms: _31  and  _32
REMARK   13  A    between atoms: _31  and  _34
REMARK   14  A    between atoms: _34  and  _35
REMARK   15  A    between atoms: _38  and  _40
REMARK   16  A    between atoms: _40  and  _41
REMARK   17  A    between atoms: _40  and  _43
REMARK   18  A    between atoms: _43  and  _44
REMARK   19  A    between atoms: _47  and  _49
REMARK   20  A    between atoms: _49  and  _50
REMARK   21  A    between atoms: _49  and  _52
REMARK   22  A    between atoms: _52  and  _53
REMARK   23  A    between atoms: _59  and  _61
REMARK   24  A    between atoms: _61  and  _62
REMARK   25  A    between atoms: _61  and  _64
REMARK   26  A    between atoms: _64  and  _65
REMARK   27  A    between atoms: _65  and  _66
REMARK   28  A    between atoms: _68  and  _70
REMARK   29  A    between atoms: _70  and  _71
REMARK   30  A    between atoms: _70  and  _73
REMARK   31  A    between atoms: _73  and  _74
REMARK   32  A    between atoms: _77  and  _79
REMARK   33  A    between atoms: _79  and  _80
REMARK   34  A    between atoms: _79  and  _82
REMARK   35  A    between atoms: _82  and  _83
REMARK   36  A    between atoms: _83  and  _84
REMARK   37  A    between atoms: _89  and  _91
REMARK   38  A    between atoms: _91  and  _92
REMARK   39  A    between atoms: _94  and  _96
REMARK   40  A    between atoms: _96  and  _97
REMARK   41  A    between atoms: _96  and  _99
REMARK   42  A    between atoms: _99  and  _100
REMARK   43  A    between atoms: _105  and  _107
REMARK   44  A    between atoms: _107  and  _108
REMARK   45  A    between atoms: _107  and  _110
REMARK   46  A    between atoms: _110  and  _111
REMARK   47  A    between atoms: _113  and  _115
REMARK   48  A    between atoms: _115  and  _116
REMARK   49  A    between atoms: _115  and  _118
REMARK   50  A    between atoms: _118  and  _119
REMARK   51  A    between atoms: _119  and  _120
REMARK   52  A    between atoms: _122  and  _124
REMARK   53  A    between atoms: _124  and  _125
REMARK   54  A    between atoms: _128  and  _130
REMARK   55  A    between atoms: _130  and  _131
REMARK   56  A    between atoms: _130  and  _133
REMARK   57  A    between atoms: _133  and  _134
REMARK   58  A    between atoms: _139  and  _141
REMARK   59  A    between atoms: _141  and  _142
REMARK   60  A    between atoms: _145  and  _147
REMARK   61  A    between atoms: _147  and  _148
REMARK   62  A    between atoms: _150  and  _152
REMARK   63  A    between atoms: _152  and  _153
REMARK   64  A    between atoms: _152  and  _155
REMARK   65  A    between atoms: _155  and  _156
REMARK   66  A    between atoms: _159  and  _161
REMARK   67  A    between atoms: _161  and  _162
REMARK   68  A    between atoms: _161  and  _164
REMARK   69  A    between atoms: _164  and  _165
REMARK   70  A    between atoms: _165  and  _166
REMARK   71  A    between atoms: _171  and  _173
REMARK   72  A    between atoms: _173  and  _174
REMARK   73  A    between atoms: _173  and  _176
REMARK   74  A    between atoms: _176  and  _177
REMARK   75  A    between atoms: _183  and  _185
REMARK   76  A    between atoms: _185  and  _186
REMARK   77  A    between atoms: _185  and  _188
REMARK   78  A    between atoms: _188  and  _189
REMARK   79  A    between atoms: _195  and  _197
REMARK   80  A    between atoms: _197  and  _198
REMARK   81  A    between atoms: _197  and  _200
REMARK   82  A    between atoms: _200  and  _201
REMARK   83  A    between atoms: _204  and  _206
REMARK   84  A    between atoms: _206  and  _207
REMARK   85  A    between atoms: _206  and  _209
REMARK   86  A    between atoms: _211  and  _213
REMARK   87  A    between atoms: _213  and  _214
REMARK   88  A    between atoms: _213  and  _216
REMARK   89  A    between atoms: _216  and  _217
REMARK   90  A    between atoms: _220  and  _222
REMARK   91  A    between atoms: _222  and  _223
REMARK   92  A    between atoms: _222  and  _225
REMARK   93  A    between atoms: _225  and  _226
REMARK   94  A    between atoms: _236  and  _238
REMARK   95  A    between atoms: _238  and  _239
REMARK   96  A    between atoms: _238  and  _241
REMARK   97  A    between atoms: _241  and  _242
REMARK   98  A    between atoms: _245  and  _247
REMARK   99  A    between atoms: _247  and  _248
REMARK  100  A    between atoms: _247  and  _250
REMARK  101  A    between atoms: _250  and  _251
REMARK  102  A    between atoms: _251  and  _252
REMARK  103  A    between atoms: _252  and  _253
REMARK  104  A    between atoms: _253  and  _254
REMARK  105  A    between atoms: _258  and  _260
REMARK  106  A    between atoms: _260  and  _261
REMARK  107  A    between atoms: _260  and  _263
REMARK  108  A    between atoms: _263  and  _264
REMARK                            x       y       z     vdW  Elec       q    Type
REMARK                         _______ _______ _______ _____ _____    ______ ____
ROOT
ATOM      1  O   HOH     1      43.108  16.115  10.941  0.00  0.00    +0.000 OA
ENDROOT
TORSDOF 0
REMARK  Name = ../refined-set-2016/2igv/2igv_pocket.pdb
REMARK  108 active torsions:
REMARK  status: ('A' for Active; 'I' for Inactive)
REMARK    1  A    between atoms: _1  and  _3
REMARK    2  A    between atoms: _3  and  _4
REMARK    3  A    between atoms: _3  and  _6
REMARK    4  A    between atoms: _6  and  _7
REMARK    5  A    between atoms: _12  and  _14
REMARK    6  A    between atoms: _14  and  _15
REMARK    7  A    between atoms: _14  and  _17
REMARK    8  A    between atoms: _17  and  _18
REMARK    9  A    between atoms: _18  and  _19
REMARK   10  A    between atoms: _19  and  _20
REMARK   11  A    between atoms: _29  and  _31
REMARK   12  A    between atoms: _31  and  _32
REMARK   13  A    between atoms: _31  and  _34
REMARK   14  A    between atoms: _34  and  _35
REMARK   15  A    between atoms: _38  and  _40
REMARK   16  A    between atoms: _40  and  _41
REMARK   17  A    between atoms: _40  and  _43
REMARK   18  A    between atoms: _43  and  _44
REMARK   19  A    between atoms: _47  and  _49
REMARK   20  A    between atoms: _49  and  _50
REMARK   21  A    between atoms: _49  and  _52
REMARK   22  A    between atoms: _52  and  _53
REMARK   23  A    between atoms: _59  and  _61
REMARK   24  A    between atoms: _61  and  _62
REMARK   25  A    between atoms: _61  and  _64
REMARK   26  A    between atoms: _64  and  _65
REMARK   27  A    between atoms: _65  and  _66
REMARK   28  A    between atoms: _68  and  _70
REMARK   29  A    between atoms: _70  and  _71
REMARK   30  A    between atoms: _70  and  _73
REMARK   31  A    between atoms: _73  and  _74
REMARK   32  A    between atoms: _77  and  _79
REMARK   33  A    between atoms: _79  and  _80
REMARK   34  A    between atoms: _79  and  _82
REMARK   35  A    between atoms: _82  and  _83
REMARK   36  A    between atoms: _83  and  _84
REMARK   37  A    between atoms: _89  and  _91
REMARK   38  A    between atoms: _91  and  _92
REMARK   39  A    between atoms: _94  and  _96
REMARK   40  A    between atoms: _96  and  _97
REMARK   41  A    between atoms: _96  and  _99
REMARK   42  A    between atoms: _99  and  _100
REMARK   43  A    between atoms: _105  and  _107
REMARK   44  A    between atoms: _107  and  _108
REMARK   45  A    between atoms: _107  and  _110
REMARK   46  A    between atoms: _110  and  _111
REMARK   47  A    between atoms: _113  and  _115
REMARK   48  A    between atoms: _115  and  _116
REMARK   49  A    between atoms: _115  and  _118
REMARK   50  A    between atoms: _118  and  _119
REMARK   51  A    between atoms: _119  and  _120
REMARK   52  A    between atoms: _122  and  _124
REMARK   53  A    between atoms: _124  and  _125
REMARK   54  A    between atoms: _128  and  _130
REMARK   55  A    between atoms: _130  and  _131
REMARK   56  A    between atoms: _130  and  _133
REMARK   57  A    between atoms: _133  and  _134
REMARK   58  A    between atoms: _139  and  _141
REMARK   59  A    between atoms: _141  and  _142
REMARK   60  A    between atoms: _145  and  _147
REMARK   61  A    between atoms: _147  and  _148
REMARK   62  A    between atoms: _150  and  _152
REMARK   63  A    between atoms: _152  and  _153
REMARK   64  A    between atoms: _152  and  _155
REMARK   65  A    between atoms: _155  and  _156
REMARK   66  A    between atoms: _159  and  _161
REMARK   67  A    between atoms: _161  and  _162
REMARK   68  A    between atoms: _161  and  _164
REMARK   69  A    between atoms: _164  and  _165
REMARK   70  A    between atoms: _165  and  _166
REMARK   71  A    between atoms: _171  and  _173
REMARK   72  A    between atoms: _173  and  _174
REMARK   73  A    between atoms: _173  and  _176
REMARK   74  A    between atoms: _176  and  _177
REMARK   75  A    between atoms: _183  and  _185
REMARK   76  A    between atoms: _185  and  _186
REMARK   77  A    between atoms: _185  and  _188
REMARK   78  A    between atoms: _188  and  _189
REMARK   79  A    between atoms: _195  and  _197
REMARK   80  A    between atoms: _197  and  _198
REMARK   81  A    between atoms: _197  and  _200
REMARK   82  A    between atoms: _200  and  _201
REMARK   83  A    between atoms: _204  and  _206
REMARK   84  A    between atoms: _206  and  _207
REMARK   85  A    between atoms: _206  and  _209
REMARK   86  A    between atoms: _211  and  _213
REMARK   87  A    between atoms: _213  and  _214
REMARK   88  A    between atoms: _213  and  _216
REMARK   89  A    between atoms: _216  and  _217
REMARK   90  A    between atoms: _220  and  _222
REMARK   91  A    between atoms: _222  and  _223
REMARK   92  A    between atoms: _222  and  _225
REMARK   93  A    between atoms: _225  and  _226
REMARK   94  A    between atoms: _236  and  _238
REMARK   95  A    between atoms: _238  and  _239
REMARK   96  A    between atoms: _238  and  _241
REMARK   97  A    between atoms: _241  and  _242
REMARK   98  A    between atoms: _245  and  _247
REMARK   99  A    between atoms: _247  and  _248
REMARK  100  A    between atoms: _247  and  _250
REMARK  101  A    between atoms: _250  and  _251
REMARK  102  A    between atoms: _251  and  _252
REMARK  103  A    between atoms: _252  and  _253
REMARK  104  A    between atoms: _253  and  _254
REMARK  105  A    between atoms: _258  and  _260
REMARK  106  A    between atoms: _260  and  _261
REMARK  107  A    between atoms: _260  and  _263
REMARK  108  A    between atoms: _263  and  _264
REMARK                            x       y       z     vdW  Elec       q    Type
REMARK                         _______ _______ _______ _____ _____    ______ ____
ROOT
ATOM      1  O   HOH     1      45.837  12.274  19.581  0.00  0.00    +0.000 OA
ENDROOT
TORSDOF 0
REMARK  Name = ../refined-set-2016/2igv/2igv_pocket.pdb
REMARK  108 active torsions:
REMARK  status: ('A' for Active; 'I' for Inactive)
REMARK    1  A    between atoms: _1  and  _3
REMARK    2  A    between atoms: _3  and  _4
REMARK    3  A    between atoms: _3  and  _6
REMARK    4  A    between atoms: _6  and  _7
REMARK    5  A    between atoms: _12  and  _14
REMARK    6  A    between atoms: _14  and  _15
REMARK    7  A    between atoms: _14  and  _17
REMARK    8  A    between atoms: _17  and  _18
REMARK    9  A    between atoms: _18  and  _19
REMARK   10  A    between atoms: _19  and  _20
REMARK   11  A    between atoms: _29  and  _31
REMARK   12  A    between atoms: _31  and  _32
REMARK   13  A    between atoms: _31  and  _34
REMARK   14  A    between atoms: _34  and  _35
REMARK   15  A    between atoms: _38  and  _40
REMARK   16  A    between atoms: _40  and  _41
REMARK   17  A    between atoms: _40  and  _43
REMARK   18  A    between atoms: _43  and  _44
REMARK   19  A    between atoms: _47  and  _49
REMARK   20  A    between atoms: _49  and  _50
REMARK   21  A    between atoms: _49  and  _52
REMARK   22  A    between atoms: _52  and  _53
REMARK   23  A    between atoms: _59  and  _61
REMARK   24  A    between atoms: _61  and  _62
REMARK   25  A    between atoms: _61  and  _64
REMARK   26  A    between atoms: _64  and  _65
REMARK   27  A    between atoms: _65  and  _66
REMARK   28  A    between atoms: _68  and  _70
REMARK   29  A    between atoms: _70  and  _71
REMARK   30  A    between atoms: _70  and  _73
REMARK   31  A    between atoms: _73  and  _74
REMARK   32  A    between atoms: _77  and  _79
REMARK   33  A    between atoms: _79  and  _80
REMARK   34  A    between atoms: _79  and  _82
REMARK   35  A    between atoms: _82  and  _83
REMARK   36  A    between atoms: _83  and  _84
REMARK   37  A    between atoms: _89  and  _91
REMARK   38  A    between atoms: _91  and  _92
REMARK   39  A    between atoms: _94  and  _96
REMARK   40  A    between atoms: _96  and  _97
REMARK   41  A    between atoms: _96  and  _99
REMARK   42  A    between atoms: _99  and  _100
REMARK   43  A    between atoms: _105  and  _107
REMARK   44  A    between atoms: _107  and  _108
REMARK   45  A    between atoms: _107  and  _110
REMARK   46  A    between atoms: _110  and  _111
REMARK   47  A    between atoms: _113  and  _115
REMARK   48  A    between atoms: _115  and  _116
REMARK   49  A    between atoms: _115  and  _118
REMARK   50  A    between atoms: _118  and  _119
REMARK   51  A    between atoms: _119  and  _120
REMARK   52  A    between atoms: _122  and  _124
REMARK   53  A    between atoms: _124  and  _125
REMARK   54  A    between atoms: _128  and  _130
REMARK   55  A    between atoms: _130  and  _131
REMARK   56  A    between atoms: _130  and  _133
REMARK   57  A    between atoms: _133  and  _134
REMARK   58  A    between atoms: _139  and  _141
REMARK   59  A    between atoms: _141  and  _142
REMARK   60  A    between atoms: _145  and  _147
REMARK   61  A    between atoms: _147  and  _148
REMARK   62  A    between atoms: _150  and  _152
REMARK   63  A    between atoms: _152  and  _153
REMARK   64  A    between atoms: _152  and  _155
REMARK   65  A    between atoms: _155  and  _156
REMARK   66  A    between atoms: _159  and  _161
REMARK   67  A    between atoms: _161  and  _162
REMARK   68  A    between atoms: _161  and  _164
REMARK   69  A    between atoms: _164  and  _165
REMARK   70  A    between atoms: _165  and  _166
REMARK   71  A    between atoms: _171  and  _173
REMARK   72  A    between atoms: _173  and  _174
REMARK   73  A    between atoms: _173  and  _176
REMARK   74  A    between atoms: _176  and  _177
REMARK   75  A    between atoms: _183  and  _185
REMARK   76  A    between atoms: _185  and  _186
REMARK   77  A    between atoms: _185  and  _188
REMARK   78  A    between atoms: _188  and  _189
REMARK   79  A    between atoms: _195  and  _197
REMARK   80  A    between atoms: _197  and  _198
REMARK   81  A    between atoms: _197  and  _200
REMARK   82  A    between atoms: _200  and  _201
REMARK   83  A    between atoms: _204  and  _206
REMARK   84  A    between atoms: _206  and  _207
REMARK   85  A    between atoms: _206  and  _209
REMARK   86  A    between atoms: _211  and  _213
REMARK   87  A    between atoms: _213  and  _214
REMARK   88  A    between atoms: _213  and  _216
REMARK   89  A    between atoms: _216  and  _217
REMARK   90  A    between atoms: _220  and  _222
REMARK   91  A    between atoms: _222  and  _223
REMARK   92  A    between atoms: _222  and  _225
REMARK   93  A    between atoms: _225  and  _226
REMARK   94  A    between atoms: _236  and  _238
REMARK   95  A    between atoms: _238  and  _239
REMARK   96  A    between atoms: _238  and  _241
REMARK   97  A    between atoms: _241  and  _242
REMARK   98  A    between atoms: _245  and  _247
REMARK   99  A    between atoms: _247  and  _248
REMARK  100  A    between atoms: _247  and  _250
REMARK  101  A    between atoms: _250  and  _251
REMARK  102  A    between atoms: _251  and  _252
REMARK  103  A    between atoms: _252  and  _253
REMARK  104  A    between atoms: _253  and  _254
REMARK  105  A    between atoms: _258  and  _260
REMARK  106  A    between atoms: _260  and  _261
REMARK  107  A    between atoms: _260  and  _263
REMARK  108  A    between atoms: _263  and  _264
REMARK                            x       y       z     vdW  Elec       q    Type
REMARK                         _______ _______ _______ _____ _____    ______ ____
ROOT
ATOM      1  O   HOH     1      43.495  13.188  18.524  0.00  0.00    +0.000 OA
ENDROOT
TORSDOF 0
REMARK  Name = ../refined-set-2016/2igv/2igv_pocket.pdb
REMARK  108 active torsions:
REMARK  status: ('A' for Active; 'I' for Inactive)
REMARK    1  A    between atoms: _1  and  _3
REMARK    2  A    between atoms: _3  and  _4
REMARK    3  A    between atoms: _3  and  _6
REMARK    4  A    between atoms: _6  and  _7
REMARK    5  A    between atoms: _12  and  _14
REMARK    6  A    between atoms: _14  and  _15
REMARK    7  A    between atoms: _14  and  _17
REMARK    8  A    between atoms: _17  and  _18
REMARK    9  A    between atoms: _18  and  _19
REMARK   10  A    between atoms: _19  and  _20
REMARK   11  A    between atoms: _29  and  _31
REMARK   12  A    between atoms: _31  and  _32
REMARK   13  A    between atoms: _31  and  _34
REMARK   14  A    between atoms: _34  and  _35
REMARK   15  A    between atoms: _38  and  _40
REMARK   16  A    between atoms: _40  and  _41
REMARK   17  A    between atoms: _40  and  _43
REMARK   18  A    between atoms: _43  and  _44
REMARK   19  A    between atoms: _47  and  _49
REMARK   20  A    between atoms: _49  and  _50
REMARK   21  A    between atoms: _49  and  _52
REMARK   22  A    between atoms: _52  and  _53
REMARK   23  A    between atoms: _59  and  _61
REMARK   24  A    between atoms: _61  and  _62
REMARK   25  A    between atoms: _61  and  _64
REMARK   26  A    between atoms: _64  and  _65
REMARK   27  A    between atoms: _65  and  _66
REMARK   28  A    between atoms: _68  and  _70
REMARK   29  A    between atoms: _70  and  _71
REMARK   30  A    between atoms: _70  and  _73
REMARK   31  A    between atoms: _73  and  _74
REMARK   32  A    between atoms: _77  and  _79
REMARK   33  A    between atoms: _79  and  _80
REMARK   34  A    between atoms: _79  and  _82
REMARK   35  A    between atoms: _82  and  _83
REMARK   36  A    between atoms: _83  and  _84
REMARK   37  A    between atoms: _89  and  _91
REMARK   38  A    between atoms: _91  and  _92
REMARK   39  A    between atoms: _94  and  _96
REMARK   40  A    between atoms: _96  and  _97
REMARK   41  A    between atoms: _96  and  _99
REMARK   42  A    between atoms: _99  and  _100
REMARK   43  A    between atoms: _105  and  _107
REMARK   44  A    between atoms: _107  and  _108
REMARK   45  A    between atoms: _107  and  _110
REMARK   46  A    between atoms: _110  and  _111
REMARK   47  A    between atoms: _113  and  _115
REMARK   48  A    between atoms: _115  and  _116
REMARK   49  A    between atoms: _115  and  _118
REMARK   50  A    between atoms: _118  and  _119
REMARK   51  A    between atoms: _119  and  _120
REMARK   52  A    between atoms: _122  and  _124
REMARK   53  A    between atoms: _124  and  _125
REMARK   54  A    between atoms: _128  and  _130
REMARK   55  A    between atoms: _130  and  _131
REMARK   56  A    between atoms: _130  and  _133
REMARK   57  A    between atoms: _133  and  _134
REMARK   58  A    between atoms: _139  and  _141
REMARK   59  A    between atoms: _141  and  _142
REMARK   60  A    between atoms: _145  and  _147
REMARK   61  A    between atoms: _147  and  _148
REMARK   62  A    between atoms: _150  and  _152
REMARK   63  A    between atoms: _152  and  _153
REMARK   64  A    between atoms: _152  and  _155
REMARK   65  A    between atoms: _155  and  _156
REMARK   66  A    between atoms: _159  and  _161
REMARK   67  A    between atoms: _161  and  _162
REMARK   68  A    between atoms: _161  and  _164
REMARK   69  A    between atoms: _164  and  _165
REMARK   70  A    between atoms: _165  and  _166
REMARK   71  A    between atoms: _171  and  _173
REMARK   72  A    between atoms: _173  and  _174
REMARK   73  A    between atoms: _173  and  _176
REMARK   74  A    between atoms: _176  and  _177
REMARK   75  A    between atoms: _183  and  _185
REMARK   76  A    between atoms: _185  and  _186
REMARK   77  A    between atoms: _185  and  _188
REMARK   78  A    between atoms: _188  and  _189
REMARK   79  A    between atoms: _195  and  _197
REMARK   80  A    between atoms: _197  and  _198
REMARK   81  A    between atoms: _197  and  _200
REMARK   82  A    between atoms: _200  and  _201
REMARK   83  A    between atoms: _204  and  _206
REMARK   84  A    between atoms: _206  and  _207
REMARK   85  A    between atoms: _206  and  _209
REMARK   86  A    between atoms: _211  and  _213
REMARK   87  A    between atoms: _213  and  _214
REMARK   88  A    between atoms: _213  and  _216
REMARK   89  A    between atoms: _216  and  _217
REMARK   90  A    between atoms: _220  and  _222
REMARK   91  A    between atoms: _222  and  _223
REMARK   92  A    between atoms: _222  and  _225
REMARK   93  A    between atoms: _225  and  _226
REMARK   94  A    between atoms: _236  and  _238
REMARK   95  A    between atoms: _238  and  _239
REMARK   96  A    between atoms: _238  and  _241
REMARK   97  A    between atoms: _241  and  _242
REMARK   98  A    between atoms: _245  and  _247
REMARK   99  A    between atoms: _247  and  _248
REMARK  100  A    between atoms: _247  and  _250
REMARK  101  A    between atoms: _250  and  _251
REMARK  102  A    between atoms: _251  and  _252
REMARK  103  A    between atoms: _252  and  _253
REMARK  104  A    between atoms: _253  and  _254
REMARK  105  A    between atoms: _258  and  _260
REMARK  106  A    between atoms: _260  and  _261
REMARK  107  A    between atoms: _260  and  _263
REMARK  108  A    between atoms: _263  and  _264
REMARK                            x       y       z     vdW  Elec       q    Type
REMARK                         _______ _______ _______ _____ _____    ______ ____
ROOT
ATOM      1  O   HOH     1      50.428  13.326   6.028  0.00  0.00    +0.000 OA
ENDROOT
TORSDOF 0
REMARK  Name = ../refined-set-2016/2igv/2igv_pocket.pdb
REMARK  108 active torsions:
REMARK  status: ('A' for Active; 'I' for Inactive)
REMARK    1  A    between atoms: _1  and  _3
REMARK    2  A    between atoms: _3  and  _4
REMARK    3  A    between atoms: _3  and  _6
REMARK    4  A    between atoms: _6  and  _7
REMARK    5  A    between atoms: _12  and  _14
REMARK    6  A    between atoms: _14  and  _15
REMARK    7  A    between atoms: _14  and  _17
REMARK    8  A    between atoms: _17  and  _18
REMARK    9  A    between atoms: _18  and  _19
REMARK   10  A    between atoms: _19  and  _20
REMARK   11  A    between atoms: _29  and  _31
REMARK   12  A    between atoms: _31  and  _32
REMARK   13  A    between atoms: _31  and  _34
REMARK   14  A    between atoms: _34  and  _35
REMARK   15  A    between atoms: _38  and  _40
REMARK   16  A    between atoms: _40  and  _41
REMARK   17  A    between atoms: _40  and  _43
REMARK   18  A    between atoms: _43  and  _44
REMARK   19  A    between atoms: _47  and  _49
REMARK   20  A    between atoms: _49  and  _50
REMARK   21  A    between atoms: _49  and  _52
REMARK   22  A    between atoms: _52  and  _53
REMARK   23  A    between atoms: _59  and  _61
REMARK   24  A    between atoms: _61  and  _62
REMARK   25  A    between atoms: _61  and  _64
REMARK   26  A    between atoms: _64  and  _65
REMARK   27  A    between atoms: _65  and  _66
REMARK   28  A    between atoms: _68  and  _70
REMARK   29  A    between atoms: _70  and  _71
REMARK   30  A    between atoms: _70  and  _73
REMARK   31  A    between atoms: _73  and  _74
REMARK   32  A    between atoms: _77  and  _79
REMARK   33  A    between atoms: _79  and  _80
REMARK   34  A    between atoms: _79  and  _82
REMARK   35  A    between atoms: _82  and  _83
REMARK   36  A    between atoms: _83  and  _84
REMARK   37  A    between atoms: _89  and  _91
REMARK   38  A    between atoms: _91  and  _92
REMARK   39  A    between atoms: _94  and  _96
REMARK   40  A    between atoms: _96  and  _97
REMARK   41  A    between atoms: _96  and  _99
REMARK   42  A    between atoms: _99  and  _100
REMARK   43  A    between atoms: _105  and  _107
REMARK   44  A    between atoms: _107  and  _108
REMARK   45  A    between atoms: _107  and  _110
REMARK   46  A    between atoms: _110  and  _111
REMARK   47  A    between atoms: _113  and  _115
REMARK   48  A    between atoms: _115  and  _116
REMARK   49  A    between atoms: _115  and  _118
REMARK   50  A    between atoms: _118  and  _119
REMARK   51  A    between atoms: _119  and  _120
REMARK   52  A    between atoms: _122  and  _124
REMARK   53  A    between atoms: _124  and  _125
REMARK   54  A    between atoms: _128  and  _130
REMARK   55  A    between atoms: _130  and  _131
REMARK   56  A    between atoms: _130  and  _133
REMARK   57  A    between atoms: _133  and  _134
REMARK   58  A    between atoms: _139  and  _141
REMARK   59  A    between atoms: _141  and  _142
REMARK   60  A    between atoms: _145  and  _147
REMARK   61  A    between atoms: _147  and  _148
REMARK   62  A    between atoms: _150  and  _152
REMARK   63  A    between atoms: _152  and  _153
REMARK   64  A    between atoms: _152  and  _155
REMARK   65  A    between atoms: _155  and  _156
REMARK   66  A    between atoms: _159  and  _161
REMARK   67  A    between atoms: _161  and  _162
REMARK   68  A    between atoms: _161  and  _164
REMARK   69  A    between atoms: _164  and  _165
REMARK   70  A    between atoms: _165  and  _166
REMARK   71  A    between atoms: _171  and  _173
REMARK   72  A    between atoms: _173  and  _174
REMARK   73  A    between atoms: _173  and  _176
REMARK   74  A    between atoms: _176  and  _177
REMARK   75  A    between atoms: _183  and  _185
REMARK   76  A    between atoms: _185  and  _186
REMARK   77  A    between atoms: _185  and  _188
REMARK   78  A    between atoms: _188  and  _189
REMARK   79  A    between atoms: _195  and  _197
REMARK   80  A    between atoms: _197  and  _198
REMARK   81  A    between atoms: _197  and  _200
REMARK   82  A    between atoms: _200  and  _201
REMARK   83  A    between atoms: _204  and  _206
REMARK   84  A    between atoms: _206  and  _207
REMARK   85  A    between atoms: _206  and  _209
REMARK   86  A    between atoms: _211  and  _213
REMARK   87  A    between atoms: _213  and  _214
REMARK   88  A    between atoms: _213  and  _216
REMARK   89  A    between atoms: _216  and  _217
REMARK   90  A    between atoms: _220  and  _222
REMARK   91  A    between atoms: _222  and  _223
REMARK   92  A    between atoms: _222  and  _225
REMARK   93  A    between atoms: _225  and  _226
REMARK   94  A    between atoms: _236  and  _238
REMARK   95  A    between atoms: _238  and  _239
REMARK   96  A    between atoms: _238  and  _241
REMARK   97  A    between atoms: _241  and  _242
REMARK   98  A    between atoms: _245  and  _247
REMARK   99  A    between atoms: _247  and  _248
REMARK  100  A    between atoms: _247  and  _250
REMARK  101  A    between atoms: _250  and  _251
REMARK  102  A    between atoms: _251  and  _252
REMARK  103  A    between atoms: _252  and  _253
REMARK  104  A    between atoms: _253  and  _254
REMARK  105  A    between atoms: _258  and  _260
REMARK  106  A    between atoms: _260  and  _261
REMARK  107  A    between atoms: _260  and  _263
REMARK  108  A    between atoms: _263  and  _264
REMARK                            x       y       z     vdW  Elec       q    Type
REMARK                         _______ _______ _______ _____ _____    ______ ____
ROOT
ATOM      1  O   HOH     1      49.199  11.232  12.976  0.00  0.00    +0.000 OA
ENDROOT
TORSDOF 0
REMARK  Name = ../refined-set-2016/2igv/2igv_pocket.pdb
REMARK  108 active torsions:
REMARK  status: ('A' for Active; 'I' for Inactive)
REMARK    1  A    between atoms: _1  and  _3
REMARK    2  A    between atoms: _3  and  _4
REMARK    3  A    between atoms: _3  and  _6
REMARK    4  A    between atoms: _6  and  _7
REMARK    5  A    between atoms: _12  and  _14
REMARK    6  A    between atoms: _14  and  _15
REMARK    7  A    between atoms: _14  and  _17
REMARK    8  A    between atoms: _17  and  _18
REMARK    9  A    between atoms: _18  and  _19
REMARK   10  A    between atoms: _19  and  _20
REMARK   11  A    between atoms: _29  and  _31
REMARK   12  A    between atoms: _31  and  _32
REMARK   13  A    between atoms: _31  and  _34
REMARK   14  A    between atoms: _34  and  _35
REMARK   15  A    between atoms: _38  and  _40
REMARK   16  A    between atoms: _40  and  _41
REMARK   17  A    between atoms: _40  and  _43
REMARK   18  A    between atoms: _43  and  _44
REMARK   19  A    between atoms: _47  and  _49
REMARK   20  A    between atoms: _49  and  _50
REMARK   21  A    between atoms: _49  and  _52
REMARK   22  A    between atoms: _52  and  _53
REMARK   23  A    between atoms: _59  and  _61
REMARK   24  A    between atoms: _61  and  _62
REMARK   25  A    between atoms: _61  and  _64
REMARK   26  A    between atoms: _64  and  _65
REMARK   27  A    between atoms: _65  and  _66
REMARK   28  A    between atoms: _68  and  _70
REMARK   29  A    between atoms: _70  and  _71
REMARK   30  A    between atoms: _70  and  _73
REMARK   31  A    between atoms: _73  and  _74
REMARK   32  A    between atoms: _77  and  _79
REMARK   33  A    between atoms: _79  and  _80
REMARK   34  A    between atoms: _79  and  _82
REMARK   35  A    between atoms: _82  and  _83
REMARK   36  A    between atoms: _83  and  _84
REMARK   37  A    between atoms: _89  and  _91
REMARK   38  A    between atoms: _91  and  _92
REMARK   39  A    between atoms: _94  and  _96
REMARK   40  A    between atoms: _96  and  _97
REMARK   41  A    between atoms: _96  and  _99
REMARK   42  A    between atoms: _99  and  _100
REMARK   43  A    between atoms: _105  and  _107
REMARK   44  A    between atoms: _107  and  _108
REMARK   45  A    between atoms: _107  and  _110
REMARK   46  A    between atoms: _110  and  _111
REMARK   47  A    between atoms: _113  and  _115
REMARK   48  A    between atoms: _115  and  _116
REMARK   49  A    between atoms: _115  and  _118
REMARK   50  A    between atoms: _118  and  _119
REMARK   51  A    between atoms: _119  and  _120
REMARK   52  A    between atoms: _122  and  _124
REMARK   53  A    between atoms: _124  and  _125
REMARK   54  A    between atoms: _128  and  _130
REMARK   55  A    between atoms: _130  and  _131
REMARK   56  A    between atoms: _130  and  _133
REMARK   57  A    between atoms: _133  and  _134
REMARK   58  A    between atoms: _139  and  _141
REMARK   59  A    between atoms: _141  and  _142
REMARK   60  A    between atoms: _145  and  _147
REMARK   61  A    between atoms: _147  and  _148
REMARK   62  A    between atoms: _150  and  _152
REMARK   63  A    between atoms: _152  and  _153
REMARK   64  A    between atoms: _152  and  _155
REMARK   65  A    between atoms: _155  and  _156
REMARK   66  A    between atoms: _159  and  _161
REMARK   67  A    between atoms: _161  and  _162
REMARK   68  A    between atoms: _161  and  _164
REMARK   69  A    between atoms: _164  and  _165
REMARK   70  A    between atoms: _165  and  _166
REMARK   71  A    between atoms: _171  and  _173
REMARK   72  A    between atoms: _173  and  _174
REMARK   73  A    between atoms: _173  and  _176
REMARK   74  A    between atoms: _176  and  _177
REMARK   75  A    between atoms: _183  and  _185
REMARK   76  A    between atoms: _185  and  _186
REMARK   77  A    between atoms: _185  and  _188
REMARK   78  A    between atoms: _188  and  _189
REMARK   79  A    between atoms: _195  and  _197
REMARK   80  A    between atoms: _197  and  _198
REMARK   81  A    between atoms: _197  and  _200
REMARK   82  A    between atoms: _200  and  _201
REMARK   83  A    between atoms: _204  and  _206
REMARK   84  A    between atoms: _206  and  _207
REMARK   85  A    between atoms: _206  and  _209
REMARK   86  A    between atoms: _211  and  _213
REMARK   87  A    between atoms: _213  and  _214
REMARK   88  A    between atoms: _213  and  _216
REMARK   89  A    between atoms: _216  and  _217
REMARK   90  A    between atoms: _220  and  _222
REMARK   91  A    between atoms: _222  and  _223
REMARK   92  A    between atoms: _222  and  _225
REMARK   93  A    between atoms: _225  and  _226
REMARK   94  A    between atoms: _236  and  _238
REMARK   95  A    between atoms: _238  and  _239
REMARK   96  A    between atoms: _238  and  _241
REMARK   97  A    between atoms: _241  and  _242
REMARK   98  A    between atoms: _245  and  _247
REMARK   99  A    between atoms: _247  and  _248
REMARK  100  A    between atoms: _247  and  _250
REMARK  101  A    between atoms: _250  and  _251
REMARK  102  A    between atoms: _251  and  _252
REMARK  103  A    between atoms: _252  and  _253
REMARK  104  A    between atoms: _253  and  _254
REMARK  105  A    between atoms: _258  and  _260
REMARK  106  A    between atoms: _260  and  _261
REMARK  107  A    between atoms: _260  and  _263
REMARK  108  A    between atoms: _263  and  _264
REMARK                            x       y       z     vdW  Elec       q    Type
REMARK                         _______ _______ _______ _____ _____    ______ ____
ROOT
ATOM      1  O   HOH     1      41.120  19.133  19.763  0.00  0.00    +0.000 OA
ENDROOT
TORSDOF 0
REMARK  Name = ../refined-set-2016/2igv/2igv_pocket.pdb
REMARK  108 active torsions:
REMARK  status: ('A' for Active; 'I' for Inactive)
REMARK    1  A    between atoms: _1  and  _3
REMARK    2  A    between atoms: _3  and  _4
REMARK    3  A    between atoms: _3  and  _6
REMARK    4  A    between atoms: _6  and  _7
REMARK    5  A    between atoms: _12  and  _14
REMARK    6  A    between atoms: _14  and  _15
REMARK    7  A    between atoms: _14  and  _17
REMARK    8  A    between atoms: _17  and  _18
REMARK    9  A    between atoms: _18  and  _19
REMARK   10  A    between atoms: _19  and  _20
REMARK   11  A    between atoms: _29  and  _31
REMARK   12  A    between atoms: _31  and  _32
REMARK   13  A    between atoms: _31  and  _34
REMARK   14  A    between atoms: _34  and  _35
REMARK   15  A    between atoms: _38  and  _40
REMARK   16  A    between atoms: _40  and  _41
REMARK   17  A    between atoms: _40  and  _43
REMARK   18  A    between atoms: _43  and  _44
REMARK   19  A    between atoms: _47  and  _49
REMARK   20  A    between atoms: _49  and  _50
REMARK   21  A    between atoms: _49  and  _52
REMARK   22  A    between atoms: _52  and  _53
REMARK   23  A    between atoms: _59  and  _61
REMARK   24  A    between atoms: _61  and  _62
REMARK   25  A    between atoms: _61  and  _64
REMARK   26  A    between atoms: _64  and  _65
REMARK   27  A    between atoms: _65  and  _66
REMARK   28  A    between atoms: _68  and  _70
REMARK   29  A    between atoms: _70  and  _71
REMARK   30  A    between atoms: _70  and  _73
REMARK   31  A    between atoms: _73  and  _74
REMARK   32  A    between atoms: _77  and  _79
REMARK   33  A    between atoms: _79  and  _80
REMARK   34  A    between atoms: _79  and  _82
REMARK   35  A    between atoms: _82  and  _83
REMARK   36  A    between atoms: _83  and  _84
REMARK   37  A    between atoms: _89  and  _91
REMARK   38  A    between atoms: _91  and  _92
REMARK   39  A    between atoms: _94  and  _96
REMARK   40  A    between atoms: _96  and  _97
REMARK   41  A    between atoms: _96  and  _99
REMARK   42  A    between atoms: _99  and  _100
REMARK   43  A    between atoms: _105  and  _107
REMARK   44  A    between atoms: _107  and  _108
REMARK   45  A    between atoms: _107  and  _110
REMARK   46  A    between atoms: _110  and  _111
REMARK   47  A    between atoms: _113  and  _115
REMARK   48  A    between atoms: _115  and  _116
REMARK   49  A    between atoms: _115  and  _118
REMARK   50  A    between atoms: _118  and  _119
REMARK   51  A    between atoms: _119  and  _120
REMARK   52  A    between atoms: _122  and  _124
REMARK   53  A    between atoms: _124  and  _125
REMARK   54  A    between atoms: _128  and  _130
REMARK   55  A    between atoms: _130  and  _131
REMARK   56  A    between atoms: _130  and  _133
REMARK   57  A    between atoms: _133  and  _134
REMARK   58  A    between atoms: _139  and  _141
REMARK   59  A    between atoms: _141  and  _142
REMARK   60  A    between atoms: _145  and  _147
REMARK   61  A    between atoms: _147  and  _148
REMARK   62  A    between atoms: _150  and  _152
REMARK   63  A    between atoms: _152  and  _153
REMARK   64  A    between atoms: _152  and  _155
REMARK   65  A    between atoms: _155  and  _156
REMARK   66  A    between atoms: _159  and  _161
REMARK   67  A    between atoms: _161  and  _162
REMARK   68  A    between atoms: _161  and  _164
REMARK   69  A    between atoms: _164  and  _165
REMARK   70  A    between atoms: _165  and  _166
REMARK   71  A    between atoms: _171  and  _173
REMARK   72  A    between atoms: _173  and  _174
REMARK   73  A    between atoms: _173  and  _176
REMARK   74  A    between atoms: _176  and  _177
REMARK   75  A    between atoms: _183  and  _185
REMARK   76  A    between atoms: _185  and  _186
REMARK   77  A    between atoms: _185  and  _188
REMARK   78  A    between atoms: _188  and  _189
REMARK   79  A    between atoms: _195  and  _197
REMARK   80  A    between atoms: _197  and  _198
REMARK   81  A    between atoms: _197  and  _200
REMARK   82  A    between atoms: _200  and  _201
REMARK   83  A    between atoms: _204  and  _206
REMARK   84  A    between atoms: _206  and  _207
REMARK   85  A    between atoms: _206  and  _209
REMARK   86  A    between atoms: _211  and  _213
REMARK   87  A    between atoms: _213  and  _214
REMARK   88  A    between atoms: _213  and  _216
REMARK   89  A    between atoms: _216  and  _217
REMARK   90  A    between atoms: _220  and  _222
REMARK   91  A    between atoms: _222  and  _223
REMARK   92  A    between atoms: _222  and  _225
REMARK   93  A    between atoms: _225  and  _226
REMARK   94  A    between atoms: _236  and  _238
REMARK   95  A    between atoms: _238  and  _239
REMARK   96  A    between atoms: _238  and  _241
REMARK   97  A    between atoms: _241  and  _242
REMARK   98  A    between atoms: _245  and  _247
REMARK   99  A    between atoms: _247  and  _248
REMARK  100  A    between atoms: _247  and  _250
REMARK  101  A    between atoms: _250  and  _251
REMARK  102  A    between atoms: _251  and  _252
REMARK  103  A    between atoms: _252  and  _253
REMARK  104  A    between atoms: _253  and  _254
REMARK  105  A    between atoms: _258  and  _260
REMARK  106  A    between atoms: _260  and  _261
REMARK  107  A    between atoms: _260  and  _263
REMARK  108  A    between atoms: _263  and  _264
REMARK                            x       y       z     vdW  Elec       q    Type
REMARK                         _______ _______ _______ _____ _____    ______ ____
ROOT
ATOM      1  O   HOH     1      53.497  19.456   7.001  0.00  0.00    +0.000 OA
ENDROOT
TORSDOF 0
REMARK  Name = ../refined-set-2016/2igv/2igv_pocket.pdb
REMARK  108 active torsions:
REMARK  status: ('A' for Active; 'I' for Inactive)
REMARK    1  A    between atoms: _1  and  _3
REMARK    2  A    between atoms: _3  and  _4
REMARK    3  A    between atoms: _3  and  _6
REMARK    4  A    between atoms: _6  and  _7
REMARK    5  A    between atoms: _12  and  _14
REMARK    6  A    between atoms: _14  and  _15
REMARK    7  A    between atoms: _14  and  _17
REMARK    8  A    between atoms: _17  and  _18
REMARK    9  A    between atoms: _18  and  _19
REMARK   10  A    between atoms: _19  and  _20
REMARK   11  A    between atoms: _29  and  _31
REMARK   12  A    between atoms: _31  and  _32
REMARK   13  A    between atoms: _31  and  _34
REMARK   14  A    between atoms: _34  and  _35
REMARK   15  A    between atoms: _38  and  _40
REMARK   16  A    between atoms: _40  and  _41
REMARK   17  A    between atoms: _40  and  _43
REMARK   18  A    between atoms: _43  and  _44
REMARK   19  A    between atoms: _47  and  _49
REMARK   20  A    between atoms: _49  and  _50
REMARK   21  A    between atoms: _49  and  _52
REMARK   22  A    between atoms: _52  and  _53
REMARK   23  A    between atoms: _59  and  _61
REMARK   24  A    between atoms: _61  and  _62
REMARK   25  A    between atoms: _61  and  _64
REMARK   26  A    between atoms: _64  and  _65
REMARK   27  A    between atoms: _65  and  _66
REMARK   28  A    between atoms: _68  and  _70
REMARK   29  A    between atoms: _70  and  _71
REMARK   30  A    between atoms: _70  and  _73
REMARK   31  A    between atoms: _73  and  _74
REMARK   32  A    between atoms: _77  and  _79
REMARK   33  A    between atoms: _79  and  _80
REMARK   34  A    between atoms: _79  and  _82
REMARK   35  A    between atoms: _82  and  _83
REMARK   36  A    between atoms: _83  and  _84
REMARK   37  A    between atoms: _89  and  _91
REMARK   38  A    between atoms: _91  and  _92
REMARK   39  A    between atoms: _94  and  _96
REMARK   40  A    between atoms: _96  and  _97
REMARK   41  A    between atoms: _96  and  _99
REMARK   42  A    between atoms: _99  and  _100
REMARK   43  A    between atoms: _105  and  _107
REMARK   44  A    between atoms: _107  and  _108
REMARK   45  A    between atoms: _107  and  _110
REMARK   46  A    between atoms: _110  and  _111
REMARK   47  A    between atoms: _113  and  _115
REMARK   48  A    between atoms: _115  and  _116
REMARK   49  A    between atoms: _115  and  _118
REMARK   50  A    between atoms: _118  and  _119
REMARK   51  A    between atoms: _119  and  _120
REMARK   52  A    between atoms: _122  and  _124
REMARK   53  A    between atoms: _124  and  _125
REMARK   54  A    between atoms: _128  and  _130
REMARK   55  A    between atoms: _130  and  _131
REMARK   56  A    between atoms: _130  and  _133
REMARK   57  A    between atoms: _133  and  _134
REMARK   58  A    between atoms: _139  and  _141
REMARK   59  A    between atoms: _141  and  _142
REMARK   60  A    between atoms: _145  and  _147
REMARK   61  A    between atoms: _147  and  _148
REMARK   62  A    between atoms: _150  and  _152
REMARK   63  A    between atoms: _152  and  _153
REMARK   64  A    between atoms: _152  and  _155
REMARK   65  A    between atoms: _155  and  _156
REMARK   66  A    between atoms: _159  and  _161
REMARK   67  A    between atoms: _161  and  _162
REMARK   68  A    between atoms: _161  and  _164
REMARK   69  A    between atoms: _164  and  _165
REMARK   70  A    between atoms: _165  and  _166
REMARK   71  A    between atoms: _171  and  _173
REMARK   72  A    between atoms: _173  and  _174
REMARK   73  A    between atoms: _173  and  _176
REMARK   74  A    between atoms: _176  and  _177
REMARK   75  A    between atoms: _183  and  _185
REMARK   76  A    between atoms: _185  and  _186
REMARK   77  A    between atoms: _185  and  _188
REMARK   78  A    between atoms: _188  and  _189
REMARK   79  A    between atoms: _195  and  _197
REMARK   80  A    between atoms: _197  and  _198
REMARK   81  A    between atoms: _197  and  _200
REMARK   82  A    between atoms: _200  and  _201
REMARK   83  A    between atoms: _204  and  _206
REMARK   84  A    between atoms: _206  and  _207
REMARK   85  A    between atoms: _206  and  _209
REMARK   86  A    between atoms: _211  and  _213
REMARK   87  A    between atoms: _213  and  _214
REMARK   88  A    between atoms: _213  and  _216
REMARK   89  A    between atoms: _216  and  _217
REMARK   90  A    between atoms: _220  and  _222
REMARK   91  A    between atoms: _222  and  _223
REMARK   92  A    between atoms: _222  and  _225
REMARK   93  A    between atoms: _225  and  _226
REMARK   94  A    between atoms: _236  and  _238
REMARK   95  A    between atoms: _238  and  _239
REMARK   96  A    between atoms: _238  and  _241
REMARK   97  A    between atoms: _241  and  _242
REMARK   98  A    between atoms: _245  and  _247
REMARK   99  A    between atoms: _247  and  _248
REMARK  100  A    between atoms: _247  and  _250
REMARK  101  A    between atoms: _250  and  _251
REMARK  102  A    between atoms: _251  and  _252
REMARK  103  A    between atoms: _252  and  _253
REMARK  104  A    between atoms: _253  and  _254
REMARK  105  A    between atoms: _258  and  _260
REMARK  106  A    between atoms: _260  and  _261
REMARK  107  A    between atoms: _260  and  _263
REMARK  108  A    between atoms: _263  and  _264
REMARK                            x       y       z     vdW  Elec       q    Type
REMARK                         _______ _______ _______ _____ _____    ______ ____
ROOT
ATOM      1  O   HOH     1      48.729  24.210   8.648  0.00  0.00    +0.000 OA
ENDROOT
TORSDOF 0
REMARK  Name = ../refined-set-2016/2igv/2igv_pocket.pdb
REMARK  108 active torsions:
REMARK  status: ('A' for Active; 'I' for Inactive)
REMARK    1  A    between atoms: _1  and  _3
REMARK    2  A    between atoms: _3  and  _4
REMARK    3  A    between atoms: _3  and  _6
REMARK    4  A    between atoms: _6  and  _7
REMARK    5  A    between atoms: _12  and  _14
REMARK    6  A    between atoms: _14  and  _15
REMARK    7  A    between atoms: _14  and  _17
REMARK    8  A    between atoms: _17  and  _18
REMARK    9  A    between atoms: _18  and  _19
REMARK   10  A    between atoms: _19  and  _20
REMARK   11  A    between atoms: _29  and  _31
REMARK   12  A    between atoms: _31  and  _32
REMARK   13  A    between atoms: _31  and  _34
REMARK   14  A    between atoms: _34  and  _35
REMARK   15  A    between atoms: _38  and  _40
REMARK   16  A    between atoms: _40  and  _41
REMARK   17  A    between atoms: _40  and  _43
REMARK   18  A    between atoms: _43  and  _44
REMARK   19  A    between atoms: _47  and  _49
REMARK   20  A    between atoms: _49  and  _50
REMARK   21  A    between atoms: _49  and  _52
REMARK   22  A    between atoms: _52  and  _53
REMARK   23  A    between atoms: _59  and  _61
REMARK   24  A    between atoms: _61  and  _62
REMARK   25  A    between atoms: _61  and  _64
REMARK   26  A    between atoms: _64  and  _65
REMARK   27  A    between atoms: _65  and  _66
REMARK   28  A    between atoms: _68  and  _70
REMARK   29  A    between atoms: _70  and  _71
REMARK   30  A    between atoms: _70  and  _73
REMARK   31  A    between atoms: _73  and  _74
REMARK   32  A    between atoms: _77  and  _79
REMARK   33  A    between atoms: _79  and  _80
REMARK   34  A    between atoms: _79  and  _82
REMARK   35  A    between atoms: _82  and  _83
REMARK   36  A    between atoms: _83  and  _84
REMARK   37  A    between atoms: _89  and  _91
REMARK   38  A    between atoms: _91  and  _92
REMARK   39  A    between atoms: _94  and  _96
REMARK   40  A    between atoms: _96  and  _97
REMARK   41  A    between atoms: _96  and  _99
REMARK   42  A    between atoms: _99  and  _100
REMARK   43  A    between atoms: _105  and  _107
REMARK   44  A    between atoms: _107  and  _108
REMARK   45  A    between atoms: _107  and  _110
REMARK   46  A    between atoms: _110  and  _111
REMARK   47  A    between atoms: _113  and  _115
REMARK   48  A    between atoms: _115  and  _116
REMARK   49  A    between atoms: _115  and  _118
REMARK   50  A    between atoms: _118  and  _119
REMARK   51  A    between atoms: _119  and  _120
REMARK   52  A    between atoms: _122  and  _124
REMARK   53  A    between atoms: _124  and  _125
REMARK   54  A    between atoms: _128  and  _130
REMARK   55  A    between atoms: _130  and  _131
REMARK   56  A    between atoms: _130  and  _133
REMARK   57  A    between atoms: _133  and  _134
REMARK   58  A    between atoms: _139  and  _141
REMARK   59  A    between atoms: _141  and  _142
REMARK   60  A    between atoms: _145  and  _147
REMARK   61  A    between atoms: _147  and  _148
REMARK   62  A    between atoms: _150  and  _152
REMARK   63  A    between atoms: _152  and  _153
REMARK   64  A    between atoms: _152  and  _155
REMARK   65  A    between atoms: _155  and  _156
REMARK   66  A    between atoms: _159  and  _161
REMARK   67  A    between atoms: _161  and  _162
REMARK   68  A    between atoms: _161  and  _164
REMARK   69  A    between atoms: _164  and  _165
REMARK   70  A    between atoms: _165  and  _166
REMARK   71  A    between atoms: _171  and  _173
REMARK   72  A    between atoms: _173  and  _174
REMARK   73  A    between atoms: _173  and  _176
REMARK   74  A    between atoms: _176  and  _177
REMARK   75  A    between atoms: _183  and  _185
REMARK   76  A    between atoms: _185  and  _186
REMARK   77  A    between atoms: _185  and  _188
REMARK   78  A    between atoms: _188  and  _189
REMARK   79  A    between atoms: _195  and  _197
REMARK   80  A    between atoms: _197  and  _198
REMARK   81  A    between atoms: _197  and  _200
REMARK   82  A    between atoms: _200  and  _201
REMARK   83  A    between atoms: _204  and  _206
REMARK   84  A    between atoms: _206  and  _207
REMARK   85  A    between atoms: _206  and  _209
REMARK   86  A    between atoms: _211  and  _213
REMARK   87  A    between atoms: _213  and  _214
REMARK   88  A    between atoms: _213  and  _216
REMARK   89  A    between atoms: _216  and  _217
REMARK   90  A    between atoms: _220  and  _222
REMARK   91  A    between atoms: _222  and  _223
REMARK   92  A    between atoms: _222  and  _225
REMARK   93  A    between atoms: _225  and  _226
REMARK   94  A    between atoms: _236  and  _238
REMARK   95  A    between atoms: _238  and  _239
REMARK   96  A    between atoms: _238  and  _241
REMARK   97  A    between atoms: _241  and  _242
REMARK   98  A    between atoms: _245  and  _247
REMARK   99  A    between atoms: _247  and  _248
REMARK  100  A    between atoms: _247  and  _250
REMARK  101  A    between atoms: _250  and  _251
REMARK  102  A    between atoms: _251  and  _252
REMARK  103  A    between atoms: _252  and  _253
REMARK  104  A    between atoms: _253  and  _254
REMARK  105  A    between atoms: _258  and  _260
REMARK  106  A    between atoms: _260  and  _261
REMARK  107  A    between atoms: _260  and  _263
REMARK  108  A    between atoms: _263  and  _264
REMARK                            x       y       z     vdW  Elec       q    Type
REMARK                         _______ _______ _______ _____ _____    ______ ____
ROOT
ATOM      1  O   HOH     1      49.944  11.837  16.430  0.00  0.00    +0.000 OA
ENDROOT
TORSDOF 0
REMARK  Name = ../refined-set-2016/2igv/2igv_pocket.pdb
REMARK  108 active torsions:
REMARK  status: ('A' for Active; 'I' for Inactive)
REMARK    1  A    between atoms: _1  and  _3
REMARK    2  A    between atoms: _3  and  _4
REMARK    3  A    between atoms: _3  and  _6
REMARK    4  A    between atoms: _6  and  _7
REMARK    5  A    between atoms: _12  and  _14
REMARK    6  A    between atoms: _14  and  _15
REMARK    7  A    between atoms: _14  and  _17
REMARK    8  A    between atoms: _17  and  _18
REMARK    9  A    between atoms: _18  and  _19
REMARK   10  A    between atoms: _19  and  _20
REMARK   11  A    between atoms: _29  and  _31
REMARK   12  A    between atoms: _31  and  _32
REMARK   13  A    between atoms: _31  and  _34
REMARK   14  A    between atoms: _34  and  _35
REMARK   15  A    between atoms: _38  and  _40
REMARK   16  A    between atoms: _40  and  _41
REMARK   17  A    between atoms: _40  and  _43
REMARK   18  A    between atoms: _43  and  _44
REMARK   19  A    between atoms: _47  and  _49
REMARK   20  A    between atoms: _49  and  _50
REMARK   21  A    between atoms: _49  and  _52
REMARK   22  A    between atoms: _52  and  _53
REMARK   23  A    between atoms: _59  and  _61
REMARK   24  A    between atoms: _61  and  _62
REMARK   25  A    between atoms: _61  and  _64
REMARK   26  A    between atoms: _64  and  _65
REMARK   27  A    between atoms: _65  and  _66
REMARK   28  A    between atoms: _68  and  _70
REMARK   29  A    between atoms: _70  and  _71
REMARK   30  A    between atoms: _70  and  _73
REMARK   31  A    between atoms: _73  and  _74
REMARK   32  A    between atoms: _77  and  _79
REMARK   33  A    between atoms: _79  and  _80
REMARK   34  A    between atoms: _79  and  _82
REMARK   35  A    between atoms: _82  and  _83
REMARK   36  A    between atoms: _83  and  _84
REMARK   37  A    between atoms: _89  and  _91
REMARK   38  A    between atoms: _91  and  _92
REMARK   39  A    between atoms: _94  and  _96
REMARK   40  A    between atoms: _96  and  _97
REMARK   41  A    between atoms: _96  and  _99
REMARK   42  A    between atoms: _99  and  _100
REMARK   43  A    between atoms: _105  and  _107
REMARK   44  A    between atoms: _107  and  _108
REMARK   45  A    between atoms: _107  and  _110
REMARK   46  A    between atoms: _110  and  _111
REMARK   47  A    between atoms: _113  and  _115
REMARK   48  A    between atoms: _115  and  _116
REMARK   49  A    between atoms: _115  and  _118
REMARK   50  A    between atoms: _118  and  _119
REMARK   51  A    between atoms: _119  and  _120
REMARK   52  A    between atoms: _122  and  _124
REMARK   53  A    between atoms: _124  and  _125
REMARK   54  A    between atoms: _128  and  _130
REMARK   55  A    between atoms: _130  and  _131
REMARK   56  A    between atoms: _130  and  _133
REMARK   57  A    between atoms: _133  and  _134
REMARK   58  A    between atoms: _139  and  _141
REMARK   59  A    between atoms: _141  and  _142
REMARK   60  A    between atoms: _145  and  _147
REMARK   61  A    between atoms: _147  and  _148
REMARK   62  A    between atoms: _150  and  _152
REMARK   63  A    between atoms: _152  and  _153
REMARK   64  A    between atoms: _152  and  _155
REMARK   65  A    between atoms: _155  and  _156
REMARK   66  A    between atoms: _159  and  _161
REMARK   67  A    between atoms: _161  and  _162
REMARK   68  A    between atoms: _161  and  _164
REMARK   69  A    between atoms: _164  and  _165
REMARK   70  A    between atoms: _165  and  _166
REMARK   71  A    between atoms: _171  and  _173
REMARK   72  A    between atoms: _173  and  _174
REMARK   73  A    between atoms: _173  and  _176
REMARK   74  A    between atoms: _176  and  _177
REMARK   75  A    between atoms: _183  and  _185
REMARK   76  A    between atoms: _185  and  _186
REMARK   77  A    between atoms: _185  and  _188
REMARK   78  A    between atoms: _188  and  _189
REMARK   79  A    between atoms: _195  and  _197
REMARK   80  A    between atoms: _197  and  _198
REMARK   81  A    between atoms: _197  and  _200
REMARK   82  A    between atoms: _200  and  _201
REMARK   83  A    between atoms: _204  and  _206
REMARK   84  A    between atoms: _206  and  _207
REMARK   85  A    between atoms: _206  and  _209
REMARK   86  A    between atoms: _211  and  _213
REMARK   87  A    between atoms: _213  and  _214
REMARK   88  A    between atoms: _213  and  _216
REMARK   89  A    between atoms: _216  and  _217
REMARK   90  A    between atoms: _220  and  _222
REMARK   91  A    between atoms: _222  and  _223
REMARK   92  A    between atoms: _222  and  _225
REMARK   93  A    between atoms: _225  and  _226
REMARK   94  A    between atoms: _236  and  _238
REMARK   95  A    between atoms: _238  and  _239
REMARK   96  A    between atoms: _238  and  _241
REMARK   97  A    between atoms: _241  and  _242
REMARK   98  A    between atoms: _245  and  _247
REMARK   99  A    between atoms: _247  and  _248
REMARK  100  A    between atoms: _247  and  _250
REMARK  101  A    between atoms: _250  and  _251
REMARK  102  A    between atoms: _251  and  _252
REMARK  103  A    between atoms: _252  and  _253
REMARK  104  A    between atoms: _253  and  _254
REMARK  105  A    between atoms: _258  and  _260
REMARK  106  A    between atoms: _260  and  _261
REMARK  107  A    between atoms: _260  and  _263
REMARK  108  A    between atoms: _263  and  _264
REMARK                            x       y       z     vdW  Elec       q    Type
REMARK                         _______ _______ _______ _____ _____    ______ ____
ROOT
ATOM      1  O   HOH     1      43.112  13.814  21.591  0.00  0.00    +0.000 OA
ENDROOT
TORSDOF 0
REMARK  Name = ../refined-set-2016/2igv/2igv_pocket.pdb
REMARK  108 active torsions:
REMARK  status: ('A' for Active; 'I' for Inactive)
REMARK    1  A    between atoms: _1  and  _3
REMARK    2  A    between atoms: _3  and  _4
REMARK    3  A    between atoms: _3  and  _6
REMARK    4  A    between atoms: _6  and  _7
REMARK    5  A    between atoms: _12  and  _14
REMARK    6  A    between atoms: _14  and  _15
REMARK    7  A    between atoms: _14  and  _17
REMARK    8  A    between atoms: _17  and  _18
REMARK    9  A    between atoms: _18  and  _19
REMARK   10  A    between atoms: _19  and  _20
REMARK   11  A    between atoms: _29  and  _31
REMARK   12  A    between atoms: _31  and  _32
REMARK   13  A    between atoms: _31  and  _34
REMARK   14  A    between atoms: _34  and  _35
REMARK   15  A    between atoms: _38  and  _40
REMARK   16  A    between atoms: _40  and  _41
REMARK   17  A    between atoms: _40  and  _43
REMARK   18  A    between atoms: _43  and  _44
REMARK   19  A    between atoms: _47  and  _49
REMARK   20  A    between atoms: _49  and  _50
REMARK   21  A    between atoms: _49  and  _52
REMARK   22  A    between atoms: _52  and  _53
REMARK   23  A    between atoms: _59  and  _61
REMARK   24  A    between atoms: _61  and  _62
REMARK   25  A    between atoms: _61  and  _64
REMARK   26  A    between atoms: _64  and  _65
REMARK   27  A    between atoms: _65  and  _66
REMARK   28  A    between atoms: _68  and  _70
REMARK   29  A    between atoms: _70  and  _71
REMARK   30  A    between atoms: _70  and  _73
REMARK   31  A    between atoms: _73  and  _74
REMARK   32  A    between atoms: _77  and  _79
REMARK   33  A    between atoms: _79  and  _80
REMARK   34  A    between atoms: _79  and  _82
REMARK   35  A    between atoms: _82  and  _83
REMARK   36  A    between atoms: _83  and  _84
REMARK   37  A    between atoms: _89  and  _91
REMARK   38  A    between atoms: _91  and  _92
REMARK   39  A    between atoms: _94  and  _96
REMARK   40  A    between atoms: _96  and  _97
REMARK   41  A    between atoms: _96  and  _99
REMARK   42  A    between atoms: _99  and  _100
REMARK   43  A    between atoms: _105  and  _107
REMARK   44  A    between atoms: _107  and  _108
REMARK   45  A    between atoms: _107  and  _110
REMARK   46  A    between atoms: _110  and  _111
REMARK   47  A    between atoms: _113  and  _115
REMARK   48  A    between atoms: _115  and  _116
REMARK   49  A    between atoms: _115  and  _118
REMARK   50  A    between atoms: _118  and  _119
REMARK   51  A    between atoms: _119  and  _120
REMARK   52  A    between atoms: _122  and  _124
REMARK   53  A    between atoms: _124  and  _125
REMARK   54  A    between atoms: _128  and  _130
REMARK   55  A    between atoms: _130  and  _131
REMARK   56  A    between atoms: _130  and  _133
REMARK   57  A    between atoms: _133  and  _134
REMARK   58  A    between atoms: _139  and  _141
REMARK   59  A    between atoms: _141  and  _142
REMARK   60  A    between atoms: _145  and  _147
REMARK   61  A    between atoms: _147  and  _148
REMARK   62  A    between atoms: _150  and  _152
REMARK   63  A    between atoms: _152  and  _153
REMARK   64  A    between atoms: _152  and  _155
REMARK   65  A    between atoms: _155  and  _156
REMARK   66  A    between atoms: _159  and  _161
REMARK   67  A    between atoms: _161  and  _162
REMARK   68  A    between atoms: _161  and  _164
REMARK   69  A    between atoms: _164  and  _165
REMARK   70  A    between atoms: _165  and  _166
REMARK   71  A    between atoms: _171  and  _173
REMARK   72  A    between atoms: _173  and  _174
REMARK   73  A    between atoms: _173  and  _176
REMARK   74  A    between atoms: _176  and  _177
REMARK   75  A    between atoms: _183  and  _185
REMARK   76  A    between atoms: _185  and  _186
REMARK   77  A    between atoms: _185  and  _188
REMARK   78  A    between atoms: _188  and  _189
REMARK   79  A    between atoms: _195  and  _197
REMARK   80  A    between atoms: _197  and  _198
REMARK   81  A    between atoms: _197  and  _200
REMARK   82  A    between atoms: _200  and  _201
REMARK   83  A    between atoms: _204  and  _206
REMARK   84  A    between atoms: _206  and  _207
REMARK   85  A    between atoms: _206  and  _209
REMARK   86  A    between atoms: _211  and  _213
REMARK   87  A    between atoms: _213  and  _214
REMARK   88  A    between atoms: _213  and  _216
REMARK   89  A    between atoms: _216  and  _217
REMARK   90  A    between atoms: _220  and  _222
REMARK   91  A    between atoms: _222  and  _223
REMARK   92  A    between atoms: _222  and  _225
REMARK   93  A    between atoms: _225  and  _226
REMARK   94  A    between atoms: _236  and  _238
REMARK   95  A    between atoms: _238  and  _239
REMARK   96  A    between atoms: _238  and  _241
REMARK   97  A    between atoms: _241  and  _242
REMARK   98  A    between atoms: _245  and  _247
REMARK   99  A    between atoms: _247  and  _248
REMARK  100  A    between atoms: _247  and  _250
REMARK  101  A    between atoms: _250  and  _251
REMARK  102  A    between atoms: _251  and  _252
REMARK  103  A    between atoms: _252  and  _253
REMARK  104  A    between atoms: _253  and  _254
REMARK  105  A    between atoms: _258  and  _260
REMARK  106  A    between atoms: _260  and  _261
REMARK  107  A    between atoms: _260  and  _263
REMARK  108  A    between atoms: _263  and  _264
REMARK                            x       y       z     vdW  Elec       q    Type
REMARK                         _______ _______ _______ _____ _____    ______ ____
ROOT
ATOM      1  O   HOH     1      41.971  16.375  15.962  0.00  0.00    +0.000 OA
ENDROOT
TORSDOF 0
REMARK  Name = ../refined-set-2016/2igv/2igv_pocket.pdb
REMARK  108 active torsions:
REMARK  status: ('A' for Active; 'I' for Inactive)
REMARK    1  A    between atoms: _1  and  _3
REMARK    2  A    between atoms: _3  and  _4
REMARK    3  A    between atoms: _3  and  _6
REMARK    4  A    between atoms: _6  and  _7
REMARK    5  A    between atoms: _12  and  _14
REMARK    6  A    between atoms: _14  and  _15
REMARK    7  A    between atoms: _14  and  _17
REMARK    8  A    between atoms: _17  and  _18
REMARK    9  A    between atoms: _18  and  _19
REMARK   10  A    between atoms: _19  and  _20
REMARK   11  A    between atoms: _29  and  _31
REMARK   12  A    between atoms: _31  and  _32
REMARK   13  A    between atoms: _31  and  _34
REMARK   14  A    between atoms: _34  and  _35
REMARK   15  A    between atoms: _38  and  _40
REMARK   16  A    between atoms: _40  and  _41
REMARK   17  A    between atoms: _40  and  _43
REMARK   18  A    between atoms: _43  and  _44
REMARK   19  A    between atoms: _47  and  _49
REMARK   20  A    between atoms: _49  and  _50
REMARK   21  A    between atoms: _49  and  _52
REMARK   22  A    between atoms: _52  and  _53
REMARK   23  A    between atoms: _59  and  _61
REMARK   24  A    between atoms: _61  and  _62
REMARK   25  A    between atoms: _61  and  _64
REMARK   26  A    between atoms: _64  and  _65
REMARK   27  A    between atoms: _65  and  _66
REMARK   28  A    between atoms: _68  and  _70
REMARK   29  A    between atoms: _70  and  _71
REMARK   30  A    between atoms: _70  and  _73
REMARK   31  A    between atoms: _73  and  _74
REMARK   32  A    between atoms: _77  and  _79
REMARK   33  A    between atoms: _79  and  _80
REMARK   34  A    between atoms: _79  and  _82
REMARK   35  A    between atoms: _82  and  _83
REMARK   36  A    between atoms: _83  and  _84
REMARK   37  A    between atoms: _89  and  _91
REMARK   38  A    between atoms: _91  and  _92
REMARK   39  A    between atoms: _94  and  _96
REMARK   40  A    between atoms: _96  and  _97
REMARK   41  A    between atoms: _96  and  _99
REMARK   42  A    between atoms: _99  and  _100
REMARK   43  A    between atoms: _105  and  _107
REMARK   44  A    between atoms: _107  and  _108
REMARK   45  A    between atoms: _107  and  _110
REMARK   46  A    between atoms: _110  and  _111
REMARK   47  A    between atoms: _113  and  _115
REMARK   48  A    between atoms: _115  and  _116
REMARK   49  A    between atoms: _115  and  _118
REMARK   50  A    between atoms: _118  and  _119
REMARK   51  A    between atoms: _119  and  _120
REMARK   52  A    between atoms: _122  and  _124
REMARK   53  A    between atoms: _124  and  _125
REMARK   54  A    between atoms: _128  and  _130
REMARK   55  A    between atoms: _130  and  _131
REMARK   56  A    between atoms: _130  and  _133
REMARK   57  A    between atoms: _133  and  _134
REMARK   58  A    between atoms: _139  and  _141
REMARK   59  A    between atoms: _141  and  _142
REMARK   60  A    between atoms: _145  and  _147
REMARK   61  A    between atoms: _147  and  _148
REMARK   62  A    between atoms: _150  and  _152
REMARK   63  A    between atoms: _152  and  _153
REMARK   64  A    between atoms: _152  and  _155
REMARK   65  A    between atoms: _155  and  _156
REMARK   66  A    between atoms: _159  and  _161
REMARK   67  A    between atoms: _161  and  _162
REMARK   68  A    between atoms: _161  and  _164
REMARK   69  A    between atoms: _164  and  _165
REMARK   70  A    between atoms: _165  and  _166
REMARK   71  A    between atoms: _171  and  _173
REMARK   72  A    between atoms: _173  and  _174
REMARK   73  A    between atoms: _173  and  _176
REMARK   74  A    between atoms: _176  and  _177
REMARK   75  A    between atoms: _183  and  _185
REMARK   76  A    between atoms: _185  and  _186
REMARK   77  A    between atoms: _185  and  _188
REMARK   78  A    between atoms: _188  and  _189
REMARK   79  A    between atoms: _195  and  _197
REMARK   80  A    between atoms: _197  and  _198
REMARK   81  A    between atoms: _197  and  _200
REMARK   82  A    between atoms: _200  and  _201
REMARK   83  A    between atoms: _204  and  _206
REMARK   84  A    between atoms: _206  and  _207
REMARK   85  A    between atoms: _206  and  _209
REMARK   86  A    between atoms: _211  and  _213
REMARK   87  A    between atoms: _213  and  _214
REMARK   88  A    between atoms: _213  and  _216
REMARK   89  A    between atoms: _216  and  _217
REMARK   90  A    between atoms: _220  and  _222
REMARK   91  A    between atoms: _222  and  _223
REMARK   92  A    between atoms: _222  and  _225
REMARK   93  A    between atoms: _225  and  _226
REMARK   94  A    between atoms: _236  and  _238
REMARK   95  A    between atoms: _238  and  _239
REMARK   96  A    between atoms: _238  and  _241
REMARK   97  A    between atoms: _241  and  _242
REMARK   98  A    between atoms: _245  and  _247
REMARK   99  A    between atoms: _247  and  _248
REMARK  100  A    between atoms: _247  and  _250
REMARK  101  A    between atoms: _250  and  _251
REMARK  102  A    between atoms: _251  and  _252
REMARK  103  A    between atoms: _252  and  _253
REMARK  104  A    between atoms: _253  and  _254
REMARK  105  A    between atoms: _258  and  _260
REMARK  106  A    between atoms: _260  and  _261
REMARK  107  A    between atoms: _260  and  _263
REMARK  108  A    between atoms: _263  and  _264
REMARK                            x       y       z     vdW  Elec       q    Type
REMARK                         _______ _______ _______ _____ _____    ______ ____
ROOT
ATOM      1  O   HOH     1      45.047  22.325   6.705  0.00  0.00    +0.000 OA
ENDROOT
TORSDOF 0
REMARK  Name = ../refined-set-2016/2igv/2igv_pocket.pdb
REMARK  108 active torsions:
REMARK  status: ('A' for Active; 'I' for Inactive)
REMARK    1  A    between atoms: _1  and  _3
REMARK    2  A    between atoms: _3  and  _4
REMARK    3  A    between atoms: _3  and  _6
REMARK    4  A    between atoms: _6  and  _7
REMARK    5  A    between atoms: _12  and  _14
REMARK    6  A    between atoms: _14  and  _15
REMARK    7  A    between atoms: _14  and  _17
REMARK    8  A    between atoms: _17  and  _18
REMARK    9  A    between atoms: _18  and  _19
REMARK   10  A    between atoms: _19  and  _20
REMARK   11  A    between atoms: _29  and  _31
REMARK   12  A    between atoms: _31  and  _32
REMARK   13  A    between atoms: _31  and  _34
REMARK   14  A    between atoms: _34  and  _35
REMARK   15  A    between atoms: _38  and  _40
REMARK   16  A    between atoms: _40  and  _41
REMARK   17  A    between atoms: _40  and  _43
REMARK   18  A    between atoms: _43  and  _44
REMARK   19  A    between atoms: _47  and  _49
REMARK   20  A    between atoms: _49  and  _50
REMARK   21  A    between atoms: _49  and  _52
REMARK   22  A    between atoms: _52  and  _53
REMARK   23  A    between atoms: _59  and  _61
REMARK   24  A    between atoms: _61  and  _62
REMARK   25  A    between atoms: _61  and  _64
REMARK   26  A    between atoms: _64  and  _65
REMARK   27  A    between atoms: _65  and  _66
REMARK   28  A    between atoms: _68  and  _70
REMARK   29  A    between atoms: _70  and  _71
REMARK   30  A    between atoms: _70  and  _73
REMARK   31  A    between atoms: _73  and  _74
REMARK   32  A    between atoms: _77  and  _79
REMARK   33  A    between atoms: _79  and  _80
REMARK   34  A    between atoms: _79  and  _82
REMARK   35  A    between atoms: _82  and  _83
REMARK   36  A    between atoms: _83  and  _84
REMARK   37  A    between atoms: _89  and  _91
REMARK   38  A    between atoms: _91  and  _92
REMARK   39  A    between atoms: _94  and  _96
REMARK   40  A    between atoms: _96  and  _97
REMARK   41  A    between atoms: _96  and  _99
REMARK   42  A    between atoms: _99  and  _100
REMARK   43  A    between atoms: _105  and  _107
REMARK   44  A    between atoms: _107  and  _108
REMARK   45  A    between atoms: _107  and  _110
REMARK   46  A    between atoms: _110  and  _111
REMARK   47  A    between atoms: _113  and  _115
REMARK   48  A    between atoms: _115  and  _116
REMARK   49  A    between atoms: _115  and  _118
REMARK   50  A    between atoms: _118  and  _119
REMARK   51  A    between atoms: _119  and  _120
REMARK   52  A    between atoms: _122  and  _124
REMARK   53  A    between atoms: _124  and  _125
REMARK   54  A    between atoms: _128  and  _130
REMARK   55  A    between atoms: _130  and  _131
REMARK   56  A    between atoms: _130  and  _133
REMARK   57  A    between atoms: _133  and  _134
REMARK   58  A    between atoms: _139  and  _141
REMARK   59  A    between atoms: _141  and  _142
REMARK   60  A    between atoms: _145  and  _147
REMARK   61  A    between atoms: _147  and  _148
REMARK   62  A    between atoms: _150  and  _152
REMARK   63  A    between atoms: _152  and  _153
REMARK   64  A    between atoms: _152  and  _155
REMARK   65  A    between atoms: _155  and  _156
REMARK   66  A    between atoms: _159  and  _161
REMARK   67  A    between atoms: _161  and  _162
REMARK   68  A    between atoms: _161  and  _164
REMARK   69  A    between atoms: _164  and  _165
REMARK   70  A    between atoms: _165  and  _166
REMARK   71  A    between atoms: _171  and  _173
REMARK   72  A    between atoms: _173  and  _174
REMARK   73  A    between atoms: _173  and  _176
REMARK   74  A    between atoms: _176  and  _177
REMARK   75  A    between atoms: _183  and  _185
REMARK   76  A    between atoms: _185  and  _186
REMARK   77  A    between atoms: _185  and  _188
REMARK   78  A    between atoms: _188  and  _189
REMARK   79  A    between atoms: _195  and  _197
REMARK   80  A    between atoms: _197  and  _198
REMARK   81  A    between atoms: _197  and  _200
REMARK   82  A    between atoms: _200  and  _201
REMARK   83  A    between atoms: _204  and  _206
REMARK   84  A    between atoms: _206  and  _207
REMARK   85  A    between atoms: _206  and  _209
REMARK   86  A    between atoms: _211  and  _213
REMARK   87  A    between atoms: _213  and  _214
REMARK   88  A    between atoms: _213  and  _216
REMARK   89  A    between atoms: _216  and  _217
REMARK   90  A    between atoms: _220  and  _222
REMARK   91  A    between atoms: _222  and  _223
REMARK   92  A    between atoms: _222  and  _225
REMARK   93  A    between atoms: _225  and  _226
REMARK   94  A    between atoms: _236  and  _238
REMARK   95  A    between atoms: _238  and  _239
REMARK   96  A    between atoms: _238  and  _241
REMARK   97  A    between atoms: _241  and  _242
REMARK   98  A    between atoms: _245  and  _247
REMARK   99  A    between atoms: _247  and  _248
REMARK  100  A    between atoms: _247  and  _250
REMARK  101  A    between atoms: _250  and  _251
REMARK  102  A    between atoms: _251  and  _252
REMARK  103  A    between atoms: _252  and  _253
REMARK  104  A    between atoms: _253  and  _254
REMARK  105  A    between atoms: _258  and  _260
REMARK  106  A    between atoms: _260  and  _261
REMARK  107  A    between atoms: _260  and  _263
REMARK  108  A    between atoms: _263  and  _264
REMARK                            x       y       z     vdW  Elec       q    Type
REMARK                         _______ _______ _______ _____ _____    ______ ____
ROOT
ATOM      1  O   HOH     1      42.973  21.114  15.233  0.00  0.00    +0.000 OA
ENDROOT
TORSDOF 0
REMARK  Name = ../refined-set-2016/2igv/2igv_pocket.pdb
REMARK  108 active torsions:
REMARK  status: ('A' for Active; 'I' for Inactive)
REMARK    1  A    between atoms: _1  and  _3
REMARK    2  A    between atoms: _3  and  _4
REMARK    3  A    between atoms: _3  and  _6
REMARK    4  A    between atoms: _6  and  _7
REMARK    5  A    between atoms: _12  and  _14
REMARK    6  A    between atoms: _14  and  _15
REMARK    7  A    between atoms: _14  and  _17
REMARK    8  A    between atoms: _17  and  _18
REMARK    9  A    between atoms: _18  and  _19
REMARK   10  A    between atoms: _19  and  _20
REMARK   11  A    between atoms: _29  and  _31
REMARK   12  A    between atoms: _31  and  _32
REMARK   13  A    between atoms: _31  and  _34
REMARK   14  A    between atoms: _34  and  _35
REMARK   15  A    between atoms: _38  and  _40
REMARK   16  A    between atoms: _40  and  _41
REMARK   17  A    between atoms: _40  and  _43
REMARK   18  A    between atoms: _43  and  _44
REMARK   19  A    between atoms: _47  and  _49
REMARK   20  A    between atoms: _49  and  _50
REMARK   21  A    between atoms: _49  and  _52
REMARK   22  A    between atoms: _52  and  _53
REMARK   23  A    between atoms: _59  and  _61
REMARK   24  A    between atoms: _61  and  _62
REMARK   25  A    between atoms: _61  and  _64
REMARK   26  A    between atoms: _64  and  _65
REMARK   27  A    between atoms: _65  and  _66
REMARK   28  A    between atoms: _68  and  _70
REMARK   29  A    between atoms: _70  and  _71
REMARK   30  A    between atoms: _70  and  _73
REMARK   31  A    between atoms: _73  and  _74
REMARK   32  A    between atoms: _77  and  _79
REMARK   33  A    between atoms: _79  and  _80
REMARK   34  A    between atoms: _79  and  _82
REMARK   35  A    between atoms: _82  and  _83
REMARK   36  A    between atoms: _83  and  _84
REMARK   37  A    between atoms: _89  and  _91
REMARK   38  A    between atoms: _91  and  _92
REMARK   39  A    between atoms: _94  and  _96
REMARK   40  A    between atoms: _96  and  _97
REMARK   41  A    between atoms: _96  and  _99
REMARK   42  A    between atoms: _99  and  _100
REMARK   43  A    between atoms: _105  and  _107
REMARK   44  A    between atoms: _107  and  _108
REMARK   45  A    between atoms: _107  and  _110
REMARK   46  A    between atoms: _110  and  _111
REMARK   47  A    between atoms: _113  and  _115
REMARK   48  A    between atoms: _115  and  _116
REMARK   49  A    between atoms: _115  and  _118
REMARK   50  A    between atoms: _118  and  _119
REMARK   51  A    between atoms: _119  and  _120
REMARK   52  A    between atoms: _122  and  _124
REMARK   53  A    between atoms: _124  and  _125
REMARK   54  A    between atoms: _128  and  _130
REMARK   55  A    between atoms: _130  and  _131
REMARK   56  A    between atoms: _130  and  _133
REMARK   57  A    between atoms: _133  and  _134
REMARK   58  A    between atoms: _139  and  _141
REMARK   59  A    between atoms: _141  and  _142
REMARK   60  A    between atoms: _145  and  _147
REMARK   61  A    between atoms: _147  and  _148
REMARK   62  A    between atoms: _150  and  _152
REMARK   63  A    between atoms: _152  and  _153
REMARK   64  A    between atoms: _152  and  _155
REMARK   65  A    between atoms: _155  and  _156
REMARK   66  A    between atoms: _159  and  _161
REMARK   67  A    between atoms: _161  and  _162
REMARK   68  A    between atoms: _161  and  _164
REMARK   69  A    between atoms: _164  and  _165
REMARK   70  A    between atoms: _165  and  _166
REMARK   71  A    between atoms: _171  and  _173
REMARK   72  A    between atoms: _173  and  _174
REMARK   73  A    between atoms: _173  and  _176
REMARK   74  A    between atoms: _176  and  _177
REMARK   75  A    between atoms: _183  and  _185
REMARK   76  A    between atoms: _185  and  _186
REMARK   77  A    between atoms: _185  and  _188
REMARK   78  A    between atoms: _188  and  _189
REMARK   79  A    between atoms: _195  and  _197
REMARK   80  A    between atoms: _197  and  _198
REMARK   81  A    between atoms: _197  and  _200
REMARK   82  A    between atoms: _200  and  _201
REMARK   83  A    between atoms: _204  and  _206
REMARK   84  A    between atoms: _206  and  _207
REMARK   85  A    between atoms: _206  and  _209
REMARK   86  A    between atoms: _211  and  _213
REMARK   87  A    between atoms: _213  and  _214
REMARK   88  A    between atoms: _213  and  _216
REMARK   89  A    between atoms: _216  and  _217
REMARK   90  A    between atoms: _220  and  _222
REMARK   91  A    between atoms: _222  and  _223
REMARK   92  A    between atoms: _222  and  _225
REMARK   93  A    between atoms: _225  and  _226
REMARK   94  A    between atoms: _236  and  _238
REMARK   95  A    between atoms: _238  and  _239
REMARK   96  A    between atoms: _238  and  _241
REMARK   97  A    between atoms: _241  and  _242
REMARK   98  A    between atoms: _245  and  _247
REMARK   99  A    between atoms: _247  and  _248
REMARK  100  A    between atoms: _247  and  _250
REMARK  101  A    between atoms: _250  and  _251
REMARK  102  A    between atoms: _251  and  _252
REMARK  103  A    between atoms: _252  and  _253
REMARK  104  A    between atoms: _253  and  _254
REMARK  105  A    between atoms: _258  and  _260
REMARK  106  A    between atoms: _260  and  _261
REMARK  107  A    between atoms: _260  and  _263
REMARK  108  A    between atoms: _263  and  _264
REMARK                            x       y       z     vdW  Elec       q    Type
REMARK                         _______ _______ _______ _____ _____    ______ ____
ROOT
ATOM      1  O   HOH     1      40.964  21.056  17.441  0.00  0.00    +0.000 OA
ENDROOT
TORSDOF 0
REMARK  Name = ../refined-set-2016/2igv/2igv_pocket.pdb
REMARK  108 active torsions:
REMARK  status: ('A' for Active; 'I' for Inactive)
REMARK    1  A    between atoms: _1  and  _3
REMARK    2  A    between atoms: _3  and  _4
REMARK    3  A    between atoms: _3  and  _6
REMARK    4  A    between atoms: _6  and  _7
REMARK    5  A    between atoms: _12  and  _14
REMARK    6  A    between atoms: _14  and  _15
REMARK    7  A    between atoms: _14  and  _17
REMARK    8  A    between atoms: _17  and  _18
REMARK    9  A    between atoms: _18  and  _19
REMARK   10  A    between atoms: _19  and  _20
REMARK   11  A    between atoms: _29  and  _31
REMARK   12  A    between atoms: _31  and  _32
REMARK   13  A    between atoms: _31  and  _34
REMARK   14  A    between atoms: _34  and  _35
REMARK   15  A    between atoms: _38  and  _40
REMARK   16  A    between atoms: _40  and  _41
REMARK   17  A    between atoms: _40  and  _43
REMARK   18  A    between atoms: _43  and  _44
REMARK   19  A    between atoms: _47  and  _49
REMARK   20  A    between atoms: _49  and  _50
REMARK   21  A    between atoms: _49  and  _52
REMARK   22  A    between atoms: _52  and  _53
REMARK   23  A    between atoms: _59  and  _61
REMARK   24  A    between atoms: _61  and  _62
REMARK   25  A    between atoms: _61  and  _64
REMARK   26  A    between atoms: _64  and  _65
REMARK   27  A    between atoms: _65  and  _66
REMARK   28  A    between atoms: _68  and  _70
REMARK   29  A    between atoms: _70  and  _71
REMARK   30  A    between atoms: _70  and  _73
REMARK   31  A    between atoms: _73  and  _74
REMARK   32  A    between atoms: _77  and  _79
REMARK   33  A    between atoms: _79  and  _80
REMARK   34  A    between atoms: _79  and  _82
REMARK   35  A    between atoms: _82  and  _83
REMARK   36  A    between atoms: _83  and  _84
REMARK   37  A    between atoms: _89  and  _91
REMARK   38  A    between atoms: _91  and  _92
REMARK   39  A    between atoms: _94  and  _96
REMARK   40  A    between atoms: _96  and  _97
REMARK   41  A    between atoms: _96  and  _99
REMARK   42  A    between atoms: _99  and  _100
REMARK   43  A    between atoms: _105  and  _107
REMARK   44  A    between atoms: _107  and  _108
REMARK   45  A    between atoms: _107  and  _110
REMARK   46  A    between atoms: _110  and  _111
REMARK   47  A    between atoms: _113  and  _115
REMARK   48  A    between atoms: _115  and  _116
REMARK   49  A    between atoms: _115  and  _118
REMARK   50  A    between atoms: _118  and  _119
REMARK   51  A    between atoms: _119  and  _120
REMARK   52  A    between atoms: _122  and  _124
REMARK   53  A    between atoms: _124  and  _125
REMARK   54  A    between atoms: _128  and  _130
REMARK   55  A    between atoms: _130  and  _131
REMARK   56  A    between atoms: _130  and  _133
REMARK   57  A    between atoms: _133  and  _134
REMARK   58  A    between atoms: _139  and  _141
REMARK   59  A    between atoms: _141  and  _142
REMARK   60  A    between atoms: _145  and  _147
REMARK   61  A    between atoms: _147  and  _148
REMARK   62  A    between atoms: _150  and  _152
REMARK   63  A    between atoms: _152  and  _153
REMARK   64  A    between atoms: _152  and  _155
REMARK   65  A    between atoms: _155  and  _156
REMARK   66  A    between atoms: _159  and  _161
REMARK   67  A    between atoms: _161  and  _162
REMARK   68  A    between atoms: _161  and  _164
REMARK   69  A    between atoms: _164  and  _165
REMARK   70  A    between atoms: _165  and  _166
REMARK   71  A    between atoms: _171  and  _173
REMARK   72  A    between atoms: _173  and  _174
REMARK   73  A    between atoms: _173  and  _176
REMARK   74  A    between atoms: _176  and  _177
REMARK   75  A    between atoms: _183  and  _185
REMARK   76  A    between atoms: _185  and  _186
REMARK   77  A    between atoms: _185  and  _188
REMARK   78  A    between atoms: _188  and  _189
REMARK   79  A    between atoms: _195  and  _197
REMARK   80  A    between atoms: _197  and  _198
REMARK   81  A    between atoms: _197  and  _200
REMARK   82  A    between atoms: _200  and  _201
REMARK   83  A    between atoms: _204  and  _206
REMARK   84  A    between atoms: _206  and  _207
REMARK   85  A    between atoms: _206  and  _209
REMARK   86  A    between atoms: _211  and  _213
REMARK   87  A    between atoms: _213  and  _214
REMARK   88  A    between atoms: _213  and  _216
REMARK   89  A    between atoms: _216  and  _217
REMARK   90  A    between atoms: _220  and  _222
REMARK   91  A    between atoms: _222  and  _223
REMARK   92  A    between atoms: _222  and  _225
REMARK   93  A    between atoms: _225  and  _226
REMARK   94  A    between atoms: _236  and  _238
REMARK   95  A    between atoms: _238  and  _239
REMARK   96  A    between atoms: _238  and  _241
REMARK   97  A    between atoms: _241  and  _242
REMARK   98  A    between atoms: _245  and  _247
REMARK   99  A    between atoms: _247  and  _248
REMARK  100  A    between atoms: _247  and  _250
REMARK  101  A    between atoms: _250  and  _251
REMARK  102  A    between atoms: _251  and  _252
REMARK  103  A    between atoms: _252  and  _253
REMARK  104  A    between atoms: _253  and  _254
REMARK  105  A    between atoms: _258  and  _260
REMARK  106  A    between atoms: _260  and  _261
REMARK  107  A    between atoms: _260  and  _263
REMARK  108  A    between atoms: _263  and  _264
REMARK                            x       y       z     vdW  Elec       q    Type
REMARK                         _______ _______ _______ _____ _____    ______ ____
ROOT
ATOM      1  O   HOH     1      46.098  23.037   8.618  0.00  0.00    +0.000 OA
ENDROOT
TORSDOF 0
REMARK  Name = ../refined-set-2016/2igv/2igv_pocket.pdb
REMARK  108 active torsions:
REMARK  status: ('A' for Active; 'I' for Inactive)
REMARK    1  A    between atoms: _1  and  _3
REMARK    2  A    between atoms: _3  and  _4
REMARK    3  A    between atoms: _3  and  _6
REMARK    4  A    between atoms: _6  and  _7
REMARK    5  A    between atoms: _12  and  _14
REMARK    6  A    between atoms: _14  and  _15
REMARK    7  A    between atoms: _14  and  _17
REMARK    8  A    between atoms: _17  and  _18
REMARK    9  A    between atoms: _18  and  _19
REMARK   10  A    between atoms: _19  and  _20
REMARK   11  A    between atoms: _29  and  _31
REMARK   12  A    between atoms: _31  and  _32
REMARK   13  A    between atoms: _31  and  _34
REMARK   14  A    between atoms: _34  and  _35
REMARK   15  A    between atoms: _38  and  _40
REMARK   16  A    between atoms: _40  and  _41
REMARK   17  A    between atoms: _40  and  _43
REMARK   18  A    between atoms: _43  and  _44
REMARK   19  A    between atoms: _47  and  _49
REMARK   20  A    between atoms: _49  and  _50
REMARK   21  A    between atoms: _49  and  _52
REMARK   22  A    between atoms: _52  and  _53
REMARK   23  A    between atoms: _59  and  _61
REMARK   24  A    between atoms: _61  and  _62
REMARK   25  A    between atoms: _61  and  _64
REMARK   26  A    between atoms: _64  and  _65
REMARK   27  A    between atoms: _65  and  _66
REMARK   28  A    between atoms: _68  and  _70
REMARK   29  A    between atoms: _70  and  _71
REMARK   30  A    between atoms: _70  and  _73
REMARK   31  A    between atoms: _73  and  _74
REMARK   32  A    between atoms: _77  and  _79
REMARK   33  A    between atoms: _79  and  _80
REMARK   34  A    between atoms: _79  and  _82
REMARK   35  A    between atoms: _82  and  _83
REMARK   36  A    between atoms: _83  and  _84
REMARK   37  A    between atoms: _89  and  _91
REMARK   38  A    between atoms: _91  and  _92
REMARK   39  A    between atoms: _94  and  _96
REMARK   40  A    between atoms: _96  and  _97
REMARK   41  A    between atoms: _96  and  _99
REMARK   42  A    between atoms: _99  and  _100
REMARK   43  A    between atoms: _105  and  _107
REMARK   44  A    between atoms: _107  and  _108
REMARK   45  A    between atoms: _107  and  _110
REMARK   46  A    between atoms: _110  and  _111
REMARK   47  A    between atoms: _113  and  _115
REMARK   48  A    between atoms: _115  and  _116
REMARK   49  A    between atoms: _115  and  _118
REMARK   50  A    between atoms: _118  and  _119
REMARK   51  A    between atoms: _119  and  _120
REMARK   52  A    between atoms: _122  and  _124
REMARK   53  A    between atoms: _124  and  _125
REMARK   54  A    between atoms: _128  and  _130
REMARK   55  A    between atoms: _130  and  _131
REMARK   56  A    between atoms: _130  and  _133
REMARK   57  A    between atoms: _133  and  _134
REMARK   58  A    between atoms: _139  and  _141
REMARK   59  A    between atoms: _141  and  _142
REMARK   60  A    between atoms: _145  and  _147
REMARK   61  A    between atoms: _147  and  _148
REMARK   62  A    between atoms: _150  and  _152
REMARK   63  A    between atoms: _152  and  _153
REMARK   64  A    between atoms: _152  and  _155
REMARK   65  A    between atoms: _155  and  _156
REMARK   66  A    between atoms: _159  and  _161
REMARK   67  A    between atoms: _161  and  _162
REMARK   68  A    between atoms: _161  and  _164
REMARK   69  A    between atoms: _164  and  _165
REMARK   70  A    between atoms: _165  and  _166
REMARK   71  A    between atoms: _171  and  _173
REMARK   72  A    between atoms: _173  and  _174
REMARK   73  A    between atoms: _173  and  _176
REMARK   74  A    between atoms: _176  and  _177
REMARK   75  A    between atoms: _183  and  _185
REMARK   76  A    between atoms: _185  and  _186
REMARK   77  A    between atoms: _185  and  _188
REMARK   78  A    between atoms: _188  and  _189
REMARK   79  A    between atoms: _195  and  _197
REMARK   80  A    between atoms: _197  and  _198
REMARK   81  A    between atoms: _197  and  _200
REMARK   82  A    between atoms: _200  and  _201
REMARK   83  A    between atoms: _204  and  _206
REMARK   84  A    between atoms: _206  and  _207
REMARK   85  A    between atoms: _206  and  _209
REMARK   86  A    between atoms: _211  and  _213
REMARK   87  A    between atoms: _213  and  _214
REMARK   88  A    between atoms: _213  and  _216
REMARK   89  A    between atoms: _216  and  _217
REMARK   90  A    between atoms: _220  and  _222
REMARK   91  A    between atoms: _222  and  _223
REMARK   92  A    between atoms: _222  and  _225
REMARK   93  A    between atoms: _225  and  _226
REMARK   94  A    between atoms: _236  and  _238
REMARK   95  A    between atoms: _238  and  _239
REMARK   96  A    between atoms: _238  and  _241
REMARK   97  A    between atoms: _241  and  _242
REMARK   98  A    between atoms: _245  and  _247
REMARK   99  A    between atoms: _247  and  _248
REMARK  100  A    between atoms: _247  and  _250
REMARK  101  A    between atoms: _250  and  _251
REMARK  102  A    between atoms: _251  and  _252
REMARK  103  A    between atoms: _252  and  _253
REMARK  104  A    between atoms: _253  and  _254
REMARK  105  A    between atoms: _258  and  _260
REMARK  106  A    between atoms: _260  and  _261
REMARK  107  A    between atoms: _260  and  _263
REMARK  108  A    between atoms: _263  and  _264
REMARK                            x       y       z     vdW  Elec       q    Type
REMARK                         _______ _______ _______ _____ _____    ______ ____
ROOT
ATOM      1  O   HOH     1      43.356  14.333  15.329  0.00  0.00    +0.000 OA
ENDROOT
TORSDOF 0
