REMARK  Name = ../refined-set-2016/1vyg/1vyg_pocket.pdb
REMARK  239 active torsions:
REMARK  status: ('A' for Active; 'I' for Inactive)
REMARK    1  A    between atoms: _1  and  _3
REMARK    2  A    between atoms: _3  and  _4
REMARK    3  A    between atoms: _3  and  _6
REMARK    4  A    between atoms: _6  and  _7
REMARK    5  A    between atoms: _10  and  _12
REMARK    6  A    between atoms: _12  and  _13
REMARK    7  A    between atoms: _12  and  _15
REMARK    8  A    between atoms: _15  and  _16
REMARK    9  A    between atoms: _16  and  _17
REMARK   10  A    between atoms: _20  and  _22
REMARK   11  A    between atoms: _22  and  _23
REMARK   12  A    between atoms: _22  and  _25
REMARK   13  A    between atoms: _25  and  _26
REMARK   14  A    between atoms: _28  and  _30
REMARK   15  A    between atoms: _30  and  _31
REMARK   16  A    between atoms: _30  and  _33
REMARK   17  A    between atoms: _33  and  _34
REMARK   18  A    between atoms: _40  and  _42
REMARK   19  A    between atoms: _42  and  _43
REMARK   20  A    between atoms: _42  and  _45
REMARK   21  A    between atoms: _48  and  _50
REMARK   22  A    between atoms: _50  and  _51
REMARK   23  A    between atoms: _50  and  _53
REMARK   24  A    between atoms: _53  and  _54
REMARK   25  A    between atoms: _54  and  _55
REMARK   26  A    between atoms: _57  and  _59
REMARK   27  A    between atoms: _59  and  _60
REMARK   28  A    between atoms: _59  and  _62
REMARK   29  A    between atoms: _62  and  _63
REMARK   30  A    between atoms: _65  and  _67
REMARK   31  A    between atoms: _67  and  _68
REMARK   32  A    between atoms: _67  and  _70
REMARK   33  A    between atoms: _70  and  _71
REMARK   34  A    between atoms: _74  and  _76
REMARK   35  A    between atoms: _76  and  _77
REMARK   36  A    between atoms: _79  and  _81
REMARK   37  A    between atoms: _81  and  _82
REMARK   38  A    between atoms: _81  and  _84
REMARK   39  A    between atoms: _87  and  _89
REMARK   40  A    between atoms: _89  and  _90
REMARK   41  A    between atoms: _89  and  _92
REMARK   42  A    between atoms: _92  and  _93
REMARK   43  A    between atoms: _95  and  _97
REMARK   44  A    between atoms: _97  and  _98
REMARK   45  A    between atoms: _101  and  _103
REMARK   46  A    between atoms: _103  and  _104
REMARK   47  A    between atoms: _103  and  _106
REMARK   48  A    between atoms: _106  and  _107
REMARK   49  A    between atoms: _110  and  _112
REMARK   50  A    between atoms: _112  and  _113
REMARK   51  A    between atoms: _112  and  _115
REMARK   52  A    between atoms: _115  and  _116
REMARK   53  A    between atoms: _116  and  _117
REMARK   54  A    between atoms: _117  and  _118
REMARK   55  A    between atoms: _127  and  _129
REMARK   56  A    between atoms: _129  and  _130
REMARK   57  A    between atoms: _129  and  _132
REMARK   58  A    between atoms: _132  and  _133
REMARK   59  A    between atoms: _133  and  _134
REMARK   60  A    between atoms: _139  and  _141
REMARK   61  A    between atoms: _141  and  _142
REMARK   62  A    between atoms: _141  and  _144
REMARK   63  A    between atoms: _144  and  _145
REMARK   64  A    between atoms: _148  and  _150
REMARK   65  A    between atoms: _150  and  _151
REMARK   66  A    between atoms: _153  and  _155
REMARK   67  A    between atoms: _155  and  _156
REMARK   68  A    between atoms: _155  and  _158
REMARK   69  A    between atoms: _158  and  _159
REMARK   70  A    between atoms: _164  and  _166
REMARK   71  A    between atoms: _166  and  _167
REMARK   72  A    between atoms: _166  and  _169
REMARK   73  A    between atoms: _169  and  _170
REMARK   74  A    between atoms: _173  and  _175
REMARK   75  A    between atoms: _175  and  _176
REMARK   76  A    between atoms: _175  and  _178
REMARK   77  A    between atoms: _181  and  _183
REMARK   78  A    between atoms: _183  and  _184
REMARK   79  A    between atoms: _183  and  _186
REMARK   80  A    between atoms: _186  and  _187
REMARK   81  A    between atoms: _191  and  _192
REMARK   82  A    between atoms: _197  and  _199
REMARK   83  A    between atoms: _199  and  _200
REMARK   84  A    between atoms: _199  and  _202
REMARK   85  A    between atoms: _202  and  _203
REMARK   86  A    between atoms: _206  and  _208
REMARK   87  A    between atoms: _208  and  _209
REMARK   88  A    between atoms: _208  and  _211
REMARK   89  A    between atoms: _214  and  _216
REMARK   90  A    between atoms: _216  and  _217
REMARK   91  A    between atoms: _216  and  _219
REMARK   92  A    between atoms: _219  and  _220
REMARK   93  A    between atoms: _226  and  _228
REMARK   94  A    between atoms: _228  and  _229
REMARK   95  A    between atoms: _228  and  _231
REMARK   96  A    between atoms: _231  and  _232
REMARK   97  A    between atoms: _232  and  _233
REMARK   98  A    between atoms: _235  and  _237
REMARK   99  A    between atoms: _237  and  _238
REMARK  100  A    between atoms: _237  and  _240
REMARK  101  A    between atoms: _240  and  _241
REMARK  102  A    between atoms: _244  and  _246
REMARK  103  A    between atoms: _246  and  _247
REMARK  104  A    between atoms: _246  and  _249
REMARK  105  A    between atoms: _249  and  _250
REMARK  106  A    between atoms: _250  and  _251
REMARK  107  A    between atoms: _254  and  _256
REMARK  108  A    between atoms: _256  and  _257
REMARK  109  A    between atoms: _256  and  _259
REMARK  110  A    between atoms: _259  and  _260
REMARK  111  A    between atoms: _262  and  _264
REMARK  112  A    between atoms: _264  and  _265
REMARK  113  A    between atoms: _264  and  _267
REMARK  114  A    between atoms: _267  and  _268
REMARK  115  A    between atoms: _271  and  _273
REMARK  116  A    between atoms: _273  and  _274
REMARK  117  A    between atoms: _273  and  _276
REMARK  118  A    between atoms: _276  and  _277
REMARK  119  A    between atoms: _283  and  _285
REMARK  120  A    between atoms: _285  and  _286
REMARK  121  A    between atoms: _285  and  _288
REMARK  122  A    between atoms: _288  and  _289
REMARK  123  A    between atoms: _289  and  _290
REMARK  124  A    between atoms: _290  and  _291
REMARK  125  A    between atoms: _291  and  _292
REMARK  126  A    between atoms: _296  and  _298
REMARK  127  A    between atoms: _298  and  _299
REMARK  128  A    between atoms: _298  and  _301
REMARK  129  A    between atoms: _301  and  _302
REMARK  130  A    between atoms: _307  and  _309
REMARK  131  A    between atoms: _309  and  _310
REMARK  132  A    between atoms: _309  and  _312
REMARK  133  A    between atoms: _312  and  _313
REMARK  134  A    between atoms: _316  and  _318
REMARK  135  A    between atoms: _318  and  _319
REMARK  136  A    between atoms: _318  and  _321
REMARK  137  A    between atoms: _321  and  _322
REMARK  138  A    between atoms: _322  and  _323
REMARK  139  A    between atoms: _326  and  _328
REMARK  140  A    between atoms: _328  and  _329
REMARK  141  A    between atoms: _328  and  _331
REMARK  142  A    between atoms: _331  and  _332
REMARK  143  A    between atoms: _335  and  _337
REMARK  144  A    between atoms: _337  and  _338
REMARK  145  A    between atoms: _337  and  _340
REMARK  146  A    between atoms: _340  and  _341
REMARK  147  A    between atoms: _343  and  _345
REMARK  148  A    between atoms: _345  and  _346
REMARK  149  A    between atoms: _345  and  _348
REMARK  150  A    between atoms: _348  and  _349
REMARK  151  A    between atoms: _352  and  _354
REMARK  152  A    between atoms: _354  and  _355
REMARK  153  A    between atoms: _357  and  _359
REMARK  154  A    between atoms: _359  and  _360
REMARK  155  A    between atoms: _359  and  _362
REMARK  156  A    between atoms: _362  and  _363
REMARK  157  A    between atoms: _363  and  _364
REMARK  158  A    between atoms: _364  and  _365
REMARK  159  A    between atoms: _374  and  _376
REMARK  160  A    between atoms: _376  and  _377
REMARK  161  A    between atoms: _376  and  _379
REMARK  162  A    between atoms: _379  and  _380
REMARK  163  A    between atoms: _380  and  _381
REMARK  164  A    between atoms: _386  and  _388
REMARK  165  A    between atoms: _388  and  _389
REMARK  166  A    between atoms: _388  and  _391
REMARK  167  A    between atoms: _391  and  _392
REMARK  168  A    between atoms: _392  and  _393
REMARK  169  A    between atoms: _398  and  _400
REMARK  170  A    between atoms: _400  and  _401
REMARK  171  A    between atoms: _400  and  _403
REMARK  172  A    between atoms: _403  and  _404
REMARK  173  A    between atoms: _407  and  _409
REMARK  174  A    between atoms: _409  and  _410
REMARK  175  A    between atoms: _409  and  _412
REMARK  176  A    between atoms: _415  and  _417
REMARK  177  A    between atoms: _417  and  _418
REMARK  178  A    between atoms: _417  and  _420
REMARK  179  A    between atoms: _420  and  _421
REMARK  180  A    between atoms: _424  and  _426
REMARK  181  A    between atoms: _426  and  _427
REMARK  182  A    between atoms: _426  and  _429
REMARK  183  A    between atoms: _432  and  _434
REMARK  184  A    between atoms: _434  and  _435
REMARK  185  A    between atoms: _434  and  _437
REMARK  186  A    between atoms: _437  and  _438
REMARK  187  A    between atoms: _438  and  _439
REMARK  188  A    between atoms: _439  and  _440
REMARK  189  A    between atoms: _449  and  _451
REMARK  190  A    between atoms: _451  and  _452
REMARK  191  A    between atoms: _451  and  _454
REMARK  192  A    between atoms: _454  and  _455
REMARK  193  A    between atoms: _455  and  _456
REMARK  194  A    between atoms: _458  and  _460
REMARK  195  A    between atoms: _460  and  _461
REMARK  196  A    between atoms: _460  and  _463
REMARK  197  A    between atoms: _463  and  _464
REMARK  198  A    between atoms: _464  and  _465
REMARK  199  A    between atoms: _465  and  _466
REMARK  200  A    between atoms: _466  and  _467
REMARK  201  A    between atoms: _471  and  _473
REMARK  202  A    between atoms: _473  and  _474
REMARK  203  A    between atoms: _473  and  _476
REMARK  204  A    between atoms: _476  and  _477
REMARK  205  A    between atoms: _480  and  _482
REMARK  206  A    between atoms: _482  and  _483
REMARK  207  A    between atoms: _482  and  _485
REMARK  208  A    between atoms: _485  and  _486
REMARK  209  A    between atoms: _489  and  _491
REMARK  210  A    between atoms: _491  and  _492
REMARK  211  A    between atoms: _491  and  _494
REMARK  212  A    between atoms: _497  and  _499
REMARK  213  A    between atoms: _499  and  _500
REMARK  214  A    between atoms: _499  and  _502
REMARK  215  A    between atoms: _502  and  _503
REMARK  216  A    between atoms: _506  and  _508
REMARK  217  A    between atoms: _508  and  _509
REMARK  218  A    between atoms: _508  and  _511
REMARK  219  A    between atoms: _514  and  _516
REMARK  220  A    between atoms: _516  and  _517
REMARK  221  A    between atoms: _520  and  _522
REMARK  222  A    between atoms: _522  and  _523
REMARK  223  A    between atoms: _522  and  _525
REMARK  224  A    between atoms: _525  and  _526
REMARK  225  A    between atoms: _529  and  _531
REMARK  226  A    between atoms: _531  and  _532
REMARK  227  A    between atoms: _531  and  _534
REMARK  228  A    between atoms: _534  and  _535
REMARK  229  A    between atoms: _535  and  _536
REMARK  230  A    between atoms: _536  and  _537
REMARK  231  A    between atoms: _546  and  _548
REMARK  232  A    between atoms: _548  and  _549
REMARK  233  A    between atoms: _548  and  _551
REMARK  234  A    between atoms: _551  and  _552
REMARK  235  A    between atoms: _557  and  _559
REMARK  236  A    between atoms: _559  and  _560
REMARK  237  A    between atoms: _559  and  _562
REMARK  238  A    between atoms: _562  and  _563
REMARK  239  A    between atoms: _568  and  _569
REMARK                            x       y       z     vdW  Elec       q    Type
REMARK                         _______ _______ _______ _____ _____    ______ ____
ROOT
ATOM      1  CA  LEU A   1      18.666  32.155  -1.693  0.00  0.00    +0.133 C 
ENDROOT
BRANCH   1   2
ATOM      2  N   LEU A   1      19.158  33.526  -1.635  0.00  0.00    -0.239 NA
ATOM      3  H   LEU A   1      18.541  34.265  -1.242  0.00  0.00    +0.142 HD
ENDBRANCH   1   2
BRANCH   1   4
ATOM      4  C   LEU A   1      18.670  31.673  -3.133  0.00  0.00    +0.224 C 
ATOM      5  O   LEU A   1      18.301  32.418  -4.031  0.00  0.00    -0.287 OA
ENDBRANCH   1   4
BRANCH   1   6
ATOM      6  CB  LEU A   1      17.247  32.075  -1.128  0.00  0.00    +0.025 C 
BRANCH   6   7
ATOM      7  CG  LEU A   1      16.567  30.711  -1.080  0.00  0.00    +0.002 C 
ATOM      8  CD2 LEU A   1      17.091  29.870   0.035  0.00  0.00    +0.000 C 
ATOM      9  CD1 LEU A   1      15.099  30.910  -0.920  0.00  0.00    +0.000 C 
ENDBRANCH   6   7
ENDBRANCH   1   6
TORSDOF 4
REMARK  Name = ../refined-set-2016/1vyg/1vyg_pocket.pdb
REMARK  239 active torsions:
REMARK  status: ('A' for Active; 'I' for Inactive)
REMARK    1  A    between atoms: _1  and  _3
REMARK    2  A    between atoms: _3  and  _4
REMARK    3  A    between atoms: _3  and  _6
REMARK    4  A    between atoms: _6  and  _7
REMARK    5  A    between atoms: _10  and  _12
REMARK    6  A    between atoms: _12  and  _13
REMARK    7  A    between atoms: _12  and  _15
REMARK    8  A    between atoms: _15  and  _16
REMARK    9  A    between atoms: _16  and  _17
REMARK   10  A    between atoms: _20  and  _22
REMARK   11  A    between atoms: _22  and  _23
REMARK   12  A    between atoms: _22  and  _25
REMARK   13  A    between atoms: _25  and  _26
REMARK   14  A    between atoms: _28  and  _30
REMARK   15  A    between atoms: _30  and  _31
REMARK   16  A    between atoms: _30  and  _33
REMARK   17  A    between atoms: _33  and  _34
REMARK   18  A    between atoms: _40  and  _42
REMARK   19  A    between atoms: _42  and  _43
REMARK   20  A    between atoms: _42  and  _45
REMARK   21  A    between atoms: _48  and  _50
REMARK   22  A    between atoms: _50  and  _51
REMARK   23  A    between atoms: _50  and  _53
REMARK   24  A    between atoms: _53  and  _54
REMARK   25  A    between atoms: _54  and  _55
REMARK   26  A    between atoms: _57  and  _59
REMARK   27  A    between atoms: _59  and  _60
REMARK   28  A    between atoms: _59  and  _62
REMARK   29  A    between atoms: _62  and  _63
REMARK   30  A    between atoms: _65  and  _67
REMARK   31  A    between atoms: _67  and  _68
REMARK   32  A    between atoms: _67  and  _70
REMARK   33  A    between atoms: _70  and  _71
REMARK   34  A    between atoms: _74  and  _76
REMARK   35  A    between atoms: _76  and  _77
REMARK   36  A    between atoms: _79  and  _81
REMARK   37  A    between atoms: _81  and  _82
REMARK   38  A    between atoms: _81  and  _84
REMARK   39  A    between atoms: _87  and  _89
REMARK   40  A    between atoms: _89  and  _90
REMARK   41  A    between atoms: _89  and  _92
REMARK   42  A    between atoms: _92  and  _93
REMARK   43  A    between atoms: _95  and  _97
REMARK   44  A    between atoms: _97  and  _98
REMARK   45  A    between atoms: _101  and  _103
REMARK   46  A    between atoms: _103  and  _104
REMARK   47  A    between atoms: _103  and  _106
REMARK   48  A    between atoms: _106  and  _107
REMARK   49  A    between atoms: _110  and  _112
REMARK   50  A    between atoms: _112  and  _113
REMARK   51  A    between atoms: _112  and  _115
REMARK   52  A    between atoms: _115  and  _116
REMARK   53  A    between atoms: _116  and  _117
REMARK   54  A    between atoms: _117  and  _118
REMARK   55  A    between atoms: _127  and  _129
REMARK   56  A    between atoms: _129  and  _130
REMARK   57  A    between atoms: _129  and  _132
REMARK   58  A    between atoms: _132  and  _133
REMARK   59  A    between atoms: _133  and  _134
REMARK   60  A    between atoms: _139  and  _141
REMARK   61  A    between atoms: _141  and  _142
REMARK   62  A    between atoms: _141  and  _144
REMARK   63  A    between atoms: _144  and  _145
REMARK   64  A    between atoms: _148  and  _150
REMARK   65  A    between atoms: _150  and  _151
REMARK   66  A    between atoms: _153  and  _155
REMARK   67  A    between atoms: _155  and  _156
REMARK   68  A    between atoms: _155  and  _158
REMARK   69  A    between atoms: _158  and  _159
REMARK   70  A    between atoms: _164  and  _166
REMARK   71  A    between atoms: _166  and  _167
REMARK   72  A    between atoms: _166  and  _169
REMARK   73  A    between atoms: _169  and  _170
REMARK   74  A    between atoms: _173  and  _175
REMARK   75  A    between atoms: _175  and  _176
REMARK   76  A    between atoms: _175  and  _178
REMARK   77  A    between atoms: _181  and  _183
REMARK   78  A    between atoms: _183  and  _184
REMARK   79  A    between atoms: _183  and  _186
REMARK   80  A    between atoms: _186  and  _187
REMARK   81  A    between atoms: _191  and  _192
REMARK   82  A    between atoms: _197  and  _199
REMARK   83  A    between atoms: _199  and  _200
REMARK   84  A    between atoms: _199  and  _202
REMARK   85  A    between atoms: _202  and  _203
REMARK   86  A    between atoms: _206  and  _208
REMARK   87  A    between atoms: _208  and  _209
REMARK   88  A    between atoms: _208  and  _211
REMARK   89  A    between atoms: _214  and  _216
REMARK   90  A    between atoms: _216  and  _217
REMARK   91  A    between atoms: _216  and  _219
REMARK   92  A    between atoms: _219  and  _220
REMARK   93  A    between atoms: _226  and  _228
REMARK   94  A    between atoms: _228  and  _229
REMARK   95  A    between atoms: _228  and  _231
REMARK   96  A    between atoms: _231  and  _232
REMARK   97  A    between atoms: _232  and  _233
REMARK   98  A    between atoms: _235  and  _237
REMARK   99  A    between atoms: _237  and  _238
REMARK  100  A    between atoms: _237  and  _240
REMARK  101  A    between atoms: _240  and  _241
REMARK  102  A    between atoms: _244  and  _246
REMARK  103  A    between atoms: _246  and  _247
REMARK  104  A    between atoms: _246  and  _249
REMARK  105  A    between atoms: _249  and  _250
REMARK  106  A    between atoms: _250  and  _251
REMARK  107  A    between atoms: _254  and  _256
REMARK  108  A    between atoms: _256  and  _257
REMARK  109  A    between atoms: _256  and  _259
REMARK  110  A    between atoms: _259  and  _260
REMARK  111  A    between atoms: _262  and  _264
REMARK  112  A    between atoms: _264  and  _265
REMARK  113  A    between atoms: _264  and  _267
REMARK  114  A    between atoms: _267  and  _268
REMARK  115  A    between atoms: _271  and  _273
REMARK  116  A    between atoms: _273  and  _274
REMARK  117  A    between atoms: _273  and  _276
REMARK  118  A    between atoms: _276  and  _277
REMARK  119  A    between atoms: _283  and  _285
REMARK  120  A    between atoms: _285  and  _286
REMARK  121  A    between atoms: _285  and  _288
REMARK  122  A    between atoms: _288  and  _289
REMARK  123  A    between atoms: _289  and  _290
REMARK  124  A    between atoms: _290  and  _291
REMARK  125  A    between atoms: _291  and  _292
REMARK  126  A    between atoms: _296  and  _298
REMARK  127  A    between atoms: _298  and  _299
REMARK  128  A    between atoms: _298  and  _301
REMARK  129  A    between atoms: _301  and  _302
REMARK  130  A    between atoms: _307  and  _309
REMARK  131  A    between atoms: _309  and  _310
REMARK  132  A    between atoms: _309  and  _312
REMARK  133  A    between atoms: _312  and  _313
REMARK  134  A    between atoms: _316  and  _318
REMARK  135  A    between atoms: _318  and  _319
REMARK  136  A    between atoms: _318  and  _321
REMARK  137  A    between atoms: _321  and  _322
REMARK  138  A    between atoms: _322  and  _323
REMARK  139  A    between atoms: _326  and  _328
REMARK  140  A    between atoms: _328  and  _329
REMARK  141  A    between atoms: _328  and  _331
REMARK  142  A    between atoms: _331  and  _332
REMARK  143  A    between atoms: _335  and  _337
REMARK  144  A    between atoms: _337  and  _338
REMARK  145  A    between atoms: _337  and  _340
REMARK  146  A    between atoms: _340  and  _341
REMARK  147  A    between atoms: _343  and  _345
REMARK  148  A    between atoms: _345  and  _346
REMARK  149  A    between atoms: _345  and  _348
REMARK  150  A    between atoms: _348  and  _349
REMARK  151  A    between atoms: _352  and  _354
REMARK  152  A    between atoms: _354  and  _355
REMARK  153  A    between atoms: _357  and  _359
REMARK  154  A    between atoms: _359  and  _360
REMARK  155  A    between atoms: _359  and  _362
REMARK  156  A    between atoms: _362  and  _363
REMARK  157  A    between atoms: _363  and  _364
REMARK  158  A    between atoms: _364  and  _365
REMARK  159  A    between atoms: _374  and  _376
REMARK  160  A    between atoms: _376  and  _377
REMARK  161  A    between atoms: _376  and  _379
REMARK  162  A    between atoms: _379  and  _380
REMARK  163  A    between atoms: _380  and  _381
REMARK  164  A    between atoms: _386  and  _388
REMARK  165  A    between atoms: _388  and  _389
REMARK  166  A    between atoms: _388  and  _391
REMARK  167  A    between atoms: _391  and  _392
REMARK  168  A    between atoms: _392  and  _393
REMARK  169  A    between atoms: _398  and  _400
REMARK  170  A    between atoms: _400  and  _401
REMARK  171  A    between atoms: _400  and  _403
REMARK  172  A    between atoms: _403  and  _404
REMARK  173  A    between atoms: _407  and  _409
REMARK  174  A    between atoms: _409  and  _410
REMARK  175  A    between atoms: _409  and  _412
REMARK  176  A    between atoms: _415  and  _417
REMARK  177  A    between atoms: _417  and  _418
REMARK  178  A    between atoms: _417  and  _420
REMARK  179  A    between atoms: _420  and  _421
REMARK  180  A    between atoms: _424  and  _426
REMARK  181  A    between atoms: _426  and  _427
REMARK  182  A    between atoms: _426  and  _429
REMARK  183  A    between atoms: _432  and  _434
REMARK  184  A    between atoms: _434  and  _435
REMARK  185  A    between atoms: _434  and  _437
REMARK  186  A    between atoms: _437  and  _438
REMARK  187  A    between atoms: _438  and  _439
REMARK  188  A    between atoms: _439  and  _440
REMARK  189  A    between atoms: _449  and  _451
REMARK  190  A    between atoms: _451  and  _452
REMARK  191  A    between atoms: _451  and  _454
REMARK  192  A    between atoms: _454  and  _455
REMARK  193  A    between atoms: _455  and  _456
REMARK  194  A    between atoms: _458  and  _460
REMARK  195  A    between atoms: _460  and  _461
REMARK  196  A    between atoms: _460  and  _463
REMARK  197  A    between atoms: _463  and  _464
REMARK  198  A    between atoms: _464  and  _465
REMARK  199  A    between atoms: _465  and  _466
REMARK  200  A    between atoms: _466  and  _467
REMARK  201  A    between atoms: _471  and  _473
REMARK  202  A    between atoms: _473  and  _474
REMARK  203  A    between atoms: _473  and  _476
REMARK  204  A    between atoms: _476  and  _477
REMARK  205  A    between atoms: _480  and  _482
REMARK  206  A    between atoms: _482  and  _483
REMARK  207  A    between atoms: _482  and  _485
REMARK  208  A    between atoms: _485  and  _486
REMARK  209  A    between atoms: _489  and  _491
REMARK  210  A    between atoms: _491  and  _492
REMARK  211  A    between atoms: _491  and  _494
REMARK  212  A    between atoms: _497  and  _499
REMARK  213  A    between atoms: _499  and  _500
REMARK  214  A    between atoms: _499  and  _502
REMARK  215  A    between atoms: _502  and  _503
REMARK  216  A    between atoms: _506  and  _508
REMARK  217  A    between atoms: _508  and  _509
REMARK  218  A    between atoms: _508  and  _511
REMARK  219  A    between atoms: _514  and  _516
REMARK  220  A    between atoms: _516  and  _517
REMARK  221  A    between atoms: _520  and  _522
REMARK  222  A    between atoms: _522  and  _523
REMARK  223  A    between atoms: _522  and  _525
REMARK  224  A    between atoms: _525  and  _526
REMARK  225  A    between atoms: _529  and  _531
REMARK  226  A    between atoms: _531  and  _532
REMARK  227  A    between atoms: _531  and  _534
REMARK  228  A    between atoms: _534  and  _535
REMARK  229  A    between atoms: _535  and  _536
REMARK  230  A    between atoms: _536  and  _537
REMARK  231  A    between atoms: _546  and  _548
REMARK  232  A    between atoms: _548  and  _549
REMARK  233  A    between atoms: _548  and  _551
REMARK  234  A    between atoms: _551  and  _552
REMARK  235  A    between atoms: _557  and  _559
REMARK  236  A    between atoms: _559  and  _560
REMARK  237  A    between atoms: _559  and  _562
REMARK  238  A    between atoms: _562  and  _563
REMARK  239  A    between atoms: _568  and  _569
REMARK                            x       y       z     vdW  Elec       q    Type
REMARK                         _______ _______ _______ _____ _____    ______ ____
ROOT
ATOM      1  C   GLU A   1      17.179  26.258  -2.045  0.00  0.00    +0.238 C 
ATOM      2  O   GLU A   1      17.845  26.560  -1.070  0.00  0.00    -0.274 OA
ATOM      3  N   SER A   2      15.997  25.673  -1.978  0.00  0.00    -0.296 N 
ATOM      4  H   SER A   2      15.506  25.438  -2.864  0.00  0.00    +0.150 HD
ENDROOT
BRANCH   1   5
ATOM      5  CA  GLU A   1      17.668  26.515  -3.455  0.00  0.00    +0.145 C 
BRANCH   5   6
ATOM      6  N   GLU A   1      18.483  27.728  -3.578  0.00  0.00    -0.238 NA
ATOM      7  H   GLU A   1      19.164  27.974  -2.832  0.00  0.00    +0.142 HD
ENDBRANCH   5   6
BRANCH   5   8
ATOM      8  CB  GLU A   1      18.403  25.282  -3.948  0.00  0.00    +0.038 C 
BRANCH   8   9
ATOM      9  CG  GLU A   1      19.762  25.560  -4.530  0.00  0.00    +0.116 C 
BRANCH   9  10
ATOM     10  CD  GLU A   1      20.581  24.308  -4.640  0.00  0.00    +0.365 C 
ATOM     11  OE2 GLU A   1      21.799  24.366  -4.327  0.00  0.00    -0.246 OA
ATOM     12  OE1 GLU A   1      19.978  23.275  -5.048  0.00  0.00    -0.246 OA
ENDBRANCH   9  10
ENDBRANCH   8   9
ENDBRANCH   5   8
ENDBRANCH   1   5
BRANCH   3  13
ATOM     13  CA  SER A   2      15.361  25.347  -0.728  0.00  0.00    +0.166 C 
BRANCH  13  14
ATOM     14  CB  SER A   2      14.800  23.934  -0.851  0.00  0.00    +0.229 C 
ATOM     15  OG  SER A   2      14.048  23.661  -1.763  0.00  0.00    -0.286 OA
ENDBRANCH  13  14
BRANCH  13  16
ATOM     16  C   SER A   2      14.244  26.347  -0.462  0.00  0.00    +0.165 C 
BRANCH  16  17
ATOM     17  O   SER A   2      13.528  26.013   0.720  0.00  0.00    -0.380 OA
ATOM     18  H   SER A   2      13.130  25.112   0.620  0.00  0.00    +0.211 HD
ENDBRANCH  16  17
ENDBRANCH  13  16
ENDBRANCH   3  13
TORSDOF 9
REMARK  Name = ../refined-set-2016/1vyg/1vyg_pocket.pdb
REMARK  239 active torsions:
REMARK  status: ('A' for Active; 'I' for Inactive)
REMARK    1  A    between atoms: _1  and  _3
REMARK    2  A    between atoms: _3  and  _4
REMARK    3  A    between atoms: _3  and  _6
REMARK    4  A    between atoms: _6  and  _7
REMARK    5  A    between atoms: _10  and  _12
REMARK    6  A    between atoms: _12  and  _13
REMARK    7  A    between atoms: _12  and  _15
REMARK    8  A    between atoms: _15  and  _16
REMARK    9  A    between atoms: _16  and  _17
REMARK   10  A    between atoms: _20  and  _22
REMARK   11  A    between atoms: _22  and  _23
REMARK   12  A    between atoms: _22  and  _25
REMARK   13  A    between atoms: _25  and  _26
REMARK   14  A    between atoms: _28  and  _30
REMARK   15  A    between atoms: _30  and  _31
REMARK   16  A    between atoms: _30  and  _33
REMARK   17  A    between atoms: _33  and  _34
REMARK   18  A    between atoms: _40  and  _42
REMARK   19  A    between atoms: _42  and  _43
REMARK   20  A    between atoms: _42  and  _45
REMARK   21  A    between atoms: _48  and  _50
REMARK   22  A    between atoms: _50  and  _51
REMARK   23  A    between atoms: _50  and  _53
REMARK   24  A    between atoms: _53  and  _54
REMARK   25  A    between atoms: _54  and  _55
REMARK   26  A    between atoms: _57  and  _59
REMARK   27  A    between atoms: _59  and  _60
REMARK   28  A    between atoms: _59  and  _62
REMARK   29  A    between atoms: _62  and  _63
REMARK   30  A    between atoms: _65  and  _67
REMARK   31  A    between atoms: _67  and  _68
REMARK   32  A    between atoms: _67  and  _70
REMARK   33  A    between atoms: _70  and  _71
REMARK   34  A    between atoms: _74  and  _76
REMARK   35  A    between atoms: _76  and  _77
REMARK   36  A    between atoms: _79  and  _81
REMARK   37  A    between atoms: _81  and  _82
REMARK   38  A    between atoms: _81  and  _84
REMARK   39  A    between atoms: _87  and  _89
REMARK   40  A    between atoms: _89  and  _90
REMARK   41  A    between atoms: _89  and  _92
REMARK   42  A    between atoms: _92  and  _93
REMARK   43  A    between atoms: _95  and  _97
REMARK   44  A    between atoms: _97  and  _98
REMARK   45  A    between atoms: _101  and  _103
REMARK   46  A    between atoms: _103  and  _104
REMARK   47  A    between atoms: _103  and  _106
REMARK   48  A    between atoms: _106  and  _107
REMARK   49  A    between atoms: _110  and  _112
REMARK   50  A    between atoms: _112  and  _113
REMARK   51  A    between atoms: _112  and  _115
REMARK   52  A    between atoms: _115  and  _116
REMARK   53  A    between atoms: _116  and  _117
REMARK   54  A    between atoms: _117  and  _118
REMARK   55  A    between atoms: _127  and  _129
REMARK   56  A    between atoms: _129  and  _130
REMARK   57  A    between atoms: _129  and  _132
REMARK   58  A    between atoms: _132  and  _133
REMARK   59  A    between atoms: _133  and  _134
REMARK   60  A    between atoms: _139  and  _141
REMARK   61  A    between atoms: _141  and  _142
REMARK   62  A    between atoms: _141  and  _144
REMARK   63  A    between atoms: _144  and  _145
REMARK   64  A    between atoms: _148  and  _150
REMARK   65  A    between atoms: _150  and  _151
REMARK   66  A    between atoms: _153  and  _155
REMARK   67  A    between atoms: _155  and  _156
REMARK   68  A    between atoms: _155  and  _158
REMARK   69  A    between atoms: _158  and  _159
REMARK   70  A    between atoms: _164  and  _166
REMARK   71  A    between atoms: _166  and  _167
REMARK   72  A    between atoms: _166  and  _169
REMARK   73  A    between atoms: _169  and  _170
REMARK   74  A    between atoms: _173  and  _175
REMARK   75  A    between atoms: _175  and  _176
REMARK   76  A    between atoms: _175  and  _178
REMARK   77  A    between atoms: _181  and  _183
REMARK   78  A    between atoms: _183  and  _184
REMARK   79  A    between atoms: _183  and  _186
REMARK   80  A    between atoms: _186  and  _187
REMARK   81  A    between atoms: _191  and  _192
REMARK   82  A    between atoms: _197  and  _199
REMARK   83  A    between atoms: _199  and  _200
REMARK   84  A    between atoms: _199  and  _202
REMARK   85  A    between atoms: _202  and  _203
REMARK   86  A    between atoms: _206  and  _208
REMARK   87  A    between atoms: _208  and  _209
REMARK   88  A    between atoms: _208  and  _211
REMARK   89  A    between atoms: _214  and  _216
REMARK   90  A    between atoms: _216  and  _217
REMARK   91  A    between atoms: _216  and  _219
REMARK   92  A    between atoms: _219  and  _220
REMARK   93  A    between atoms: _226  and  _228
REMARK   94  A    between atoms: _228  and  _229
REMARK   95  A    between atoms: _228  and  _231
REMARK   96  A    between atoms: _231  and  _232
REMARK   97  A    between atoms: _232  and  _233
REMARK   98  A    between atoms: _235  and  _237
REMARK   99  A    between atoms: _237  and  _238
REMARK  100  A    between atoms: _237  and  _240
REMARK  101  A    between atoms: _240  and  _241
REMARK  102  A    between atoms: _244  and  _246
REMARK  103  A    between atoms: _246  and  _247
REMARK  104  A    between atoms: _246  and  _249
REMARK  105  A    between atoms: _249  and  _250
REMARK  106  A    between atoms: _250  and  _251
REMARK  107  A    between atoms: _254  and  _256
REMARK  108  A    between atoms: _256  and  _257
REMARK  109  A    between atoms: _256  and  _259
REMARK  110  A    between atoms: _259  and  _260
REMARK  111  A    between atoms: _262  and  _264
REMARK  112  A    between atoms: _264  and  _265
REMARK  113  A    between atoms: _264  and  _267
REMARK  114  A    between atoms: _267  and  _268
REMARK  115  A    between atoms: _271  and  _273
REMARK  116  A    between atoms: _273  and  _274
REMARK  117  A    between atoms: _273  and  _276
REMARK  118  A    between atoms: _276  and  _277
REMARK  119  A    between atoms: _283  and  _285
REMARK  120  A    between atoms: _285  and  _286
REMARK  121  A    between atoms: _285  and  _288
REMARK  122  A    between atoms: _288  and  _289
REMARK  123  A    between atoms: _289  and  _290
REMARK  124  A    between atoms: _290  and  _291
REMARK  125  A    between atoms: _291  and  _292
REMARK  126  A    between atoms: _296  and  _298
REMARK  127  A    between atoms: _298  and  _299
REMARK  128  A    between atoms: _298  and  _301
REMARK  129  A    between atoms: _301  and  _302
REMARK  130  A    between atoms: _307  and  _309
REMARK  131  A    between atoms: _309  and  _310
REMARK  132  A    between atoms: _309  and  _312
REMARK  133  A    between atoms: _312  and  _313
REMARK  134  A    between atoms: _316  and  _318
REMARK  135  A    between atoms: _318  and  _319
REMARK  136  A    between atoms: _318  and  _321
REMARK  137  A    between atoms: _321  and  _322
REMARK  138  A    between atoms: _322  and  _323
REMARK  139  A    between atoms: _326  and  _328
REMARK  140  A    between atoms: _328  and  _329
REMARK  141  A    between atoms: _328  and  _331
REMARK  142  A    between atoms: _331  and  _332
REMARK  143  A    between atoms: _335  and  _337
REMARK  144  A    between atoms: _337  and  _338
REMARK  145  A    between atoms: _337  and  _340
REMARK  146  A    between atoms: _340  and  _341
REMARK  147  A    between atoms: _343  and  _345
REMARK  148  A    between atoms: _345  and  _346
REMARK  149  A    between atoms: _345  and  _348
REMARK  150  A    between atoms: _348  and  _349
REMARK  151  A    between atoms: _352  and  _354
REMARK  152  A    between atoms: _354  and  _355
REMARK  153  A    between atoms: _357  and  _359
REMARK  154  A    between atoms: _359  and  _360
REMARK  155  A    between atoms: _359  and  _362
REMARK  156  A    between atoms: _362  and  _363
REMARK  157  A    between atoms: _363  and  _364
REMARK  158  A    between atoms: _364  and  _365
REMARK  159  A    between atoms: _374  and  _376
REMARK  160  A    between atoms: _376  and  _377
REMARK  161  A    between atoms: _376  and  _379
REMARK  162  A    between atoms: _379  and  _380
REMARK  163  A    between atoms: _380  and  _381
REMARK  164  A    between atoms: _386  and  _388
REMARK  165  A    between atoms: _388  and  _389
REMARK  166  A    between atoms: _388  and  _391
REMARK  167  A    between atoms: _391  and  _392
REMARK  168  A    between atoms: _392  and  _393
REMARK  169  A    between atoms: _398  and  _400
REMARK  170  A    between atoms: _400  and  _401
REMARK  171  A    between atoms: _400  and  _403
REMARK  172  A    between atoms: _403  and  _404
REMARK  173  A    between atoms: _407  and  _409
REMARK  174  A    between atoms: _409  and  _410
REMARK  175  A    between atoms: _409  and  _412
REMARK  176  A    between atoms: _415  and  _417
REMARK  177  A    between atoms: _417  and  _418
REMARK  178  A    between atoms: _417  and  _420
REMARK  179  A    between atoms: _420  and  _421
REMARK  180  A    between atoms: _424  and  _426
REMARK  181  A    between atoms: _426  and  _427
REMARK  182  A    between atoms: _426  and  _429
REMARK  183  A    between atoms: _432  and  _434
REMARK  184  A    between atoms: _434  and  _435
REMARK  185  A    between atoms: _434  and  _437
REMARK  186  A    between atoms: _437  and  _438
REMARK  187  A    between atoms: _438  and  _439
REMARK  188  A    between atoms: _439  and  _440
REMARK  189  A    between atoms: _449  and  _451
REMARK  190  A    between atoms: _451  and  _452
REMARK  191  A    between atoms: _451  and  _454
REMARK  192  A    between atoms: _454  and  _455
REMARK  193  A    between atoms: _455  and  _456
REMARK  194  A    between atoms: _458  and  _460
REMARK  195  A    between atoms: _460  and  _461
REMARK  196  A    between atoms: _460  and  _463
REMARK  197  A    between atoms: _463  and  _464
REMARK  198  A    between atoms: _464  and  _465
REMARK  199  A    between atoms: _465  and  _466
REMARK  200  A    between atoms: _466  and  _467
REMARK  201  A    between atoms: _471  and  _473
REMARK  202  A    between atoms: _473  and  _474
REMARK  203  A    between atoms: _473  and  _476
REMARK  204  A    between atoms: _476  and  _477
REMARK  205  A    between atoms: _480  and  _482
REMARK  206  A    between atoms: _482  and  _483
REMARK  207  A    between atoms: _482  and  _485
REMARK  208  A    between atoms: _485  and  _486
REMARK  209  A    between atoms: _489  and  _491
REMARK  210  A    between atoms: _491  and  _492
REMARK  211  A    between atoms: _491  and  _494
REMARK  212  A    between atoms: _497  and  _499
REMARK  213  A    between atoms: _499  and  _500
REMARK  214  A    between atoms: _499  and  _502
REMARK  215  A    between atoms: _502  and  _503
REMARK  216  A    between atoms: _506  and  _508
REMARK  217  A    between atoms: _508  and  _509
REMARK  218  A    between atoms: _508  and  _511
REMARK  219  A    between atoms: _514  and  _516
REMARK  220  A    between atoms: _516  and  _517
REMARK  221  A    between atoms: _520  and  _522
REMARK  222  A    between atoms: _522  and  _523
REMARK  223  A    between atoms: _522  and  _525
REMARK  224  A    between atoms: _525  and  _526
REMARK  225  A    between atoms: _529  and  _531
REMARK  226  A    between atoms: _531  and  _532
REMARK  227  A    between atoms: _531  and  _534
REMARK  228  A    between atoms: _534  and  _535
REMARK  229  A    between atoms: _535  and  _536
REMARK  230  A    between atoms: _536  and  _537
REMARK  231  A    between atoms: _546  and  _548
REMARK  232  A    between atoms: _548  and  _549
REMARK  233  A    between atoms: _548  and  _551
REMARK  234  A    between atoms: _551  and  _552
REMARK  235  A    between atoms: _557  and  _559
REMARK  236  A    between atoms: _559  and  _560
REMARK  237  A    between atoms: _559  and  _562
REMARK  238  A    between atoms: _562  and  _563
REMARK  239  A    between atoms: _568  and  _569
REMARK                            x       y       z     vdW  Elec       q    Type
REMARK                         _______ _______ _______ _____ _____    ______ ____
ROOT
ATOM      1  CB  PHE A   1      11.420  25.188   2.957  0.00  0.00    +0.051 C 
ENDROOT
BRANCH   1   2
ATOM      2  CG  PHE A   1      11.408  26.403   3.866  0.00  0.00    -0.020 A 
ATOM      3  CD2 PHE A   1      12.059  26.388   5.094  0.00  0.00    -0.004 A 
ATOM      4  CE2 PHE A   1      12.046  27.507   5.925  0.00  0.00    -0.000 A 
ATOM      5  CZ  PHE A   1      11.406  28.646   5.527  0.00  0.00    -0.000 A 
ATOM      6  CE1 PHE A   1      10.763  28.679   4.301  0.00  0.00    -0.000 A 
ATOM      7  CD1 PHE A   1      10.770  27.564   3.477  0.00  0.00    -0.004 A 
ENDBRANCH   1   2
BRANCH   1   8
ATOM      8  CA  PHE A   1      11.003  23.879   3.640  0.00  0.00    +0.137 C 
BRANCH   8   9
ATOM      9  N   PHE A   1      11.286  22.733   2.779  0.00  0.00    -0.239 NA
ATOM     10  H   PHE A   1      11.356  22.874   1.751  0.00  0.00    +0.142 HD
ENDBRANCH   8   9
BRANCH   8  11
ATOM     11  C   PHE A   1       9.537  23.959   4.068  0.00  0.00    +0.224 C 
ATOM     12  O   PHE A   1       9.233  24.492   5.138  0.00  0.00    -0.287 OA
ENDBRANCH   8  11
ENDBRANCH   1   8
TORSDOF 4
REMARK  Name = ../refined-set-2016/1vyg/1vyg_pocket.pdb
REMARK  239 active torsions:
REMARK  status: ('A' for Active; 'I' for Inactive)
REMARK    1  A    between atoms: _1  and  _3
REMARK    2  A    between atoms: _3  and  _4
REMARK    3  A    between atoms: _3  and  _6
REMARK    4  A    between atoms: _6  and  _7
REMARK    5  A    between atoms: _10  and  _12
REMARK    6  A    between atoms: _12  and  _13
REMARK    7  A    between atoms: _12  and  _15
REMARK    8  A    between atoms: _15  and  _16
REMARK    9  A    between atoms: _16  and  _17
REMARK   10  A    between atoms: _20  and  _22
REMARK   11  A    between atoms: _22  and  _23
REMARK   12  A    between atoms: _22  and  _25
REMARK   13  A    between atoms: _25  and  _26
REMARK   14  A    between atoms: _28  and  _30
REMARK   15  A    between atoms: _30  and  _31
REMARK   16  A    between atoms: _30  and  _33
REMARK   17  A    between atoms: _33  and  _34
REMARK   18  A    between atoms: _40  and  _42
REMARK   19  A    between atoms: _42  and  _43
REMARK   20  A    between atoms: _42  and  _45
REMARK   21  A    between atoms: _48  and  _50
REMARK   22  A    between atoms: _50  and  _51
REMARK   23  A    between atoms: _50  and  _53
REMARK   24  A    between atoms: _53  and  _54
REMARK   25  A    between atoms: _54  and  _55
REMARK   26  A    between atoms: _57  and  _59
REMARK   27  A    between atoms: _59  and  _60
REMARK   28  A    between atoms: _59  and  _62
REMARK   29  A    between atoms: _62  and  _63
REMARK   30  A    between atoms: _65  and  _67
REMARK   31  A    between atoms: _67  and  _68
REMARK   32  A    between atoms: _67  and  _70
REMARK   33  A    between atoms: _70  and  _71
REMARK   34  A    between atoms: _74  and  _76
REMARK   35  A    between atoms: _76  and  _77
REMARK   36  A    between atoms: _79  and  _81
REMARK   37  A    between atoms: _81  and  _82
REMARK   38  A    between atoms: _81  and  _84
REMARK   39  A    between atoms: _87  and  _89
REMARK   40  A    between atoms: _89  and  _90
REMARK   41  A    between atoms: _89  and  _92
REMARK   42  A    between atoms: _92  and  _93
REMARK   43  A    between atoms: _95  and  _97
REMARK   44  A    between atoms: _97  and  _98
REMARK   45  A    between atoms: _101  and  _103
REMARK   46  A    between atoms: _103  and  _104
REMARK   47  A    between atoms: _103  and  _106
REMARK   48  A    between atoms: _106  and  _107
REMARK   49  A    between atoms: _110  and  _112
REMARK   50  A    between atoms: _112  and  _113
REMARK   51  A    between atoms: _112  and  _115
REMARK   52  A    between atoms: _115  and  _116
REMARK   53  A    between atoms: _116  and  _117
REMARK   54  A    between atoms: _117  and  _118
REMARK   55  A    between atoms: _127  and  _129
REMARK   56  A    between atoms: _129  and  _130
REMARK   57  A    between atoms: _129  and  _132
REMARK   58  A    between atoms: _132  and  _133
REMARK   59  A    between atoms: _133  and  _134
REMARK   60  A    between atoms: _139  and  _141
REMARK   61  A    between atoms: _141  and  _142
REMARK   62  A    between atoms: _141  and  _144
REMARK   63  A    between atoms: _144  and  _145
REMARK   64  A    between atoms: _148  and  _150
REMARK   65  A    between atoms: _150  and  _151
REMARK   66  A    between atoms: _153  and  _155
REMARK   67  A    between atoms: _155  and  _156
REMARK   68  A    between atoms: _155  and  _158
REMARK   69  A    between atoms: _158  and  _159
REMARK   70  A    between atoms: _164  and  _166
REMARK   71  A    between atoms: _166  and  _167
REMARK   72  A    between atoms: _166  and  _169
REMARK   73  A    between atoms: _169  and  _170
REMARK   74  A    between atoms: _173  and  _175
REMARK   75  A    between atoms: _175  and  _176
REMARK   76  A    between atoms: _175  and  _178
REMARK   77  A    between atoms: _181  and  _183
REMARK   78  A    between atoms: _183  and  _184
REMARK   79  A    between atoms: _183  and  _186
REMARK   80  A    between atoms: _186  and  _187
REMARK   81  A    between atoms: _191  and  _192
REMARK   82  A    between atoms: _197  and  _199
REMARK   83  A    between atoms: _199  and  _200
REMARK   84  A    between atoms: _199  and  _202
REMARK   85  A    between atoms: _202  and  _203
REMARK   86  A    between atoms: _206  and  _208
REMARK   87  A    between atoms: _208  and  _209
REMARK   88  A    between atoms: _208  and  _211
REMARK   89  A    between atoms: _214  and  _216
REMARK   90  A    between atoms: _216  and  _217
REMARK   91  A    between atoms: _216  and  _219
REMARK   92  A    between atoms: _219  and  _220
REMARK   93  A    between atoms: _226  and  _228
REMARK   94  A    between atoms: _228  and  _229
REMARK   95  A    between atoms: _228  and  _231
REMARK   96  A    between atoms: _231  and  _232
REMARK   97  A    between atoms: _232  and  _233
REMARK   98  A    between atoms: _235  and  _237
REMARK   99  A    between atoms: _237  and  _238
REMARK  100  A    between atoms: _237  and  _240
REMARK  101  A    between atoms: _240  and  _241
REMARK  102  A    between atoms: _244  and  _246
REMARK  103  A    between atoms: _246  and  _247
REMARK  104  A    between atoms: _246  and  _249
REMARK  105  A    between atoms: _249  and  _250
REMARK  106  A    between atoms: _250  and  _251
REMARK  107  A    between atoms: _254  and  _256
REMARK  108  A    between atoms: _256  and  _257
REMARK  109  A    between atoms: _256  and  _259
REMARK  110  A    between atoms: _259  and  _260
REMARK  111  A    between atoms: _262  and  _264
REMARK  112  A    between atoms: _264  and  _265
REMARK  113  A    between atoms: _264  and  _267
REMARK  114  A    between atoms: _267  and  _268
REMARK  115  A    between atoms: _271  and  _273
REMARK  116  A    between atoms: _273  and  _274
REMARK  117  A    between atoms: _273  and  _276
REMARK  118  A    between atoms: _276  and  _277
REMARK  119  A    between atoms: _283  and  _285
REMARK  120  A    between atoms: _285  and  _286
REMARK  121  A    between atoms: _285  and  _288
REMARK  122  A    between atoms: _288  and  _289
REMARK  123  A    between atoms: _289  and  _290
REMARK  124  A    between atoms: _290  and  _291
REMARK  125  A    between atoms: _291  and  _292
REMARK  126  A    between atoms: _296  and  _298
REMARK  127  A    between atoms: _298  and  _299
REMARK  128  A    between atoms: _298  and  _301
REMARK  129  A    between atoms: _301  and  _302
REMARK  130  A    between atoms: _307  and  _309
REMARK  131  A    between atoms: _309  and  _310
REMARK  132  A    between atoms: _309  and  _312
REMARK  133  A    between atoms: _312  and  _313
REMARK  134  A    between atoms: _316  and  _318
REMARK  135  A    between atoms: _318  and  _319
REMARK  136  A    between atoms: _318  and  _321
REMARK  137  A    between atoms: _321  and  _322
REMARK  138  A    between atoms: _322  and  _323
REMARK  139  A    between atoms: _326  and  _328
REMARK  140  A    between atoms: _328  and  _329
REMARK  141  A    between atoms: _328  and  _331
REMARK  142  A    between atoms: _331  and  _332
REMARK  143  A    between atoms: _335  and  _337
REMARK  144  A    between atoms: _337  and  _338
REMARK  145  A    between atoms: _337  and  _340
REMARK  146  A    between atoms: _340  and  _341
REMARK  147  A    between atoms: _343  and  _345
REMARK  148  A    between atoms: _345  and  _346
REMARK  149  A    between atoms: _345  and  _348
REMARK  150  A    between atoms: _348  and  _349
REMARK  151  A    between atoms: _352  and  _354
REMARK  152  A    between atoms: _354  and  _355
REMARK  153  A    between atoms: _357  and  _359
REMARK  154  A    between atoms: _359  and  _360
REMARK  155  A    between atoms: _359  and  _362
REMARK  156  A    between atoms: _362  and  _363
REMARK  157  A    between atoms: _363  and  _364
REMARK  158  A    between atoms: _364  and  _365
REMARK  159  A    between atoms: _374  and  _376
REMARK  160  A    between atoms: _376  and  _377
REMARK  161  A    between atoms: _376  and  _379
REMARK  162  A    between atoms: _379  and  _380
REMARK  163  A    between atoms: _380  and  _381
REMARK  164  A    between atoms: _386  and  _388
REMARK  165  A    between atoms: _388  and  _389
REMARK  166  A    between atoms: _388  and  _391
REMARK  167  A    between atoms: _391  and  _392
REMARK  168  A    between atoms: _392  and  _393
REMARK  169  A    between atoms: _398  and  _400
REMARK  170  A    between atoms: _400  and  _401
REMARK  171  A    between atoms: _400  and  _403
REMARK  172  A    between atoms: _403  and  _404
REMARK  173  A    between atoms: _407  and  _409
REMARK  174  A    between atoms: _409  and  _410
REMARK  175  A    between atoms: _409  and  _412
REMARK  176  A    between atoms: _415  and  _417
REMARK  177  A    between atoms: _417  and  _418
REMARK  178  A    between atoms: _417  and  _420
REMARK  179  A    between atoms: _420  and  _421
REMARK  180  A    between atoms: _424  and  _426
REMARK  181  A    between atoms: _426  and  _427
REMARK  182  A    between atoms: _426  and  _429
REMARK  183  A    between atoms: _432  and  _434
REMARK  184  A    between atoms: _434  and  _435
REMARK  185  A    between atoms: _434  and  _437
REMARK  186  A    between atoms: _437  and  _438
REMARK  187  A    between atoms: _438  and  _439
REMARK  188  A    between atoms: _439  and  _440
REMARK  189  A    between atoms: _449  and  _451
REMARK  190  A    between atoms: _451  and  _452
REMARK  191  A    between atoms: _451  and  _454
REMARK  192  A    between atoms: _454  and  _455
REMARK  193  A    between atoms: _455  and  _456
REMARK  194  A    between atoms: _458  and  _460
REMARK  195  A    between atoms: _460  and  _461
REMARK  196  A    between atoms: _460  and  _463
REMARK  197  A    between atoms: _463  and  _464
REMARK  198  A    between atoms: _464  and  _465
REMARK  199  A    between atoms: _465  and  _466
REMARK  200  A    between atoms: _466  and  _467
REMARK  201  A    between atoms: _471  and  _473
REMARK  202  A    between atoms: _473  and  _474
REMARK  203  A    between atoms: _473  and  _476
REMARK  204  A    between atoms: _476  and  _477
REMARK  205  A    between atoms: _480  and  _482
REMARK  206  A    between atoms: _482  and  _483
REMARK  207  A    between atoms: _482  and  _485
REMARK  208  A    between atoms: _485  and  _486
REMARK  209  A    between atoms: _489  and  _491
REMARK  210  A    between atoms: _491  and  _492
REMARK  211  A    between atoms: _491  and  _494
REMARK  212  A    between atoms: _497  and  _499
REMARK  213  A    between atoms: _499  and  _500
REMARK  214  A    between atoms: _499  and  _502
REMARK  215  A    between atoms: _502  and  _503
REMARK  216  A    between atoms: _506  and  _508
REMARK  217  A    between atoms: _508  and  _509
REMARK  218  A    between atoms: _508  and  _511
REMARK  219  A    between atoms: _514  and  _516
REMARK  220  A    between atoms: _516  and  _517
REMARK  221  A    between atoms: _520  and  _522
REMARK  222  A    between atoms: _522  and  _523
REMARK  223  A    between atoms: _522  and  _525
REMARK  224  A    between atoms: _525  and  _526
REMARK  225  A    between atoms: _529  and  _531
REMARK  226  A    between atoms: _531  and  _532
REMARK  227  A    between atoms: _531  and  _534
REMARK  228  A    between atoms: _534  and  _535
REMARK  229  A    between atoms: _535  and  _536
REMARK  230  A    between atoms: _536  and  _537
REMARK  231  A    between atoms: _546  and  _548
REMARK  232  A    between atoms: _548  and  _549
REMARK  233  A    between atoms: _548  and  _551
REMARK  234  A    between atoms: _551  and  _552
REMARK  235  A    between atoms: _557  and  _559
REMARK  236  A    between atoms: _559  and  _560
REMARK  237  A    between atoms: _559  and  _562
REMARK  238  A    between atoms: _562  and  _563
REMARK  239  A    between atoms: _568  and  _569
REMARK                            x       y       z     vdW  Elec       q    Type
REMARK                         _______ _______ _______ _____ _____    ______ ____
ROOT
ATOM      1  CA  MET A   2       7.118  25.503   8.701  0.00  0.00    +0.149 C 
ENDROOT
BRANCH   1   4
ATOM      2  C   VAL A   1       8.509  23.635   9.204  0.00  0.00    +0.238 C 
ATOM      3  O   VAL A   1       8.278  23.742  10.409  0.00  0.00    -0.274 OA
ATOM      4  N   MET A   2       7.916  24.375   8.287  0.00  0.00    -0.297 N 
ATOM      5  H   MET A   2       8.023  24.148   7.278  0.00  0.00    +0.150 HD
BRANCH   2   6
ATOM      6  CA  VAL A   1       9.487  22.615   8.705  0.00  0.00    +0.145 C 
BRANCH   6   7
ATOM      7  CB  VAL A   1      10.920  23.251   8.738  0.00  0.00    +0.025 C 
ATOM      8  CG2 VAL A   1      10.932  24.716   8.200  0.00  0.00    +0.002 C 
ATOM      9  CG1 VAL A   1      11.942  22.377   8.053  0.00  0.00    +0.002 C 
ENDBRANCH   6   7
BRANCH   6  10
ATOM     10  N   VAL A   1       9.036  22.086   7.417  0.00  0.00    -0.238 NA
ATOM     11  H   VAL A   1       9.541  22.334   6.543  0.00  0.00    +0.142 HD
ENDBRANCH   6  10
ENDBRANCH   2   6
ENDBRANCH   1   4
BRANCH   1  12
ATOM     12  C   MET A   2       5.591  25.271   8.597  0.00  0.00    +0.241 C 
ATOM     13  O   MET A   2       4.815  26.104   9.010  0.00  0.00    -0.273 OA
ATOM     14  N   SER A   3       5.180  24.115   8.086  0.00  0.00    -0.296 N 
ATOM     15  H   SER A   3       5.820  23.580   7.465  0.00  0.00    +0.150 HD
BRANCH  14  16
ATOM     16  CA  SER A   3       3.855  23.576   8.372  0.00  0.00    +0.166 C 
BRANCH  16  17
ATOM     17  CB  SER A   3       3.878  23.161   9.828  0.00  0.00    +0.229 C 
ATOM     18  OG  SER A   3       2.911  23.374  10.547  0.00  0.00    -0.286 OA
ENDBRANCH  16  17
BRANCH  16  19
ATOM     19  C   SER A   3       3.556  22.333   7.537  0.00  0.00    +0.165 C 
BRANCH  19  20
ATOM     20  O   SER A   3       3.612  22.636   6.160  0.00  0.00    -0.380 OA
ATOM     21  H   SER A   3       4.517  22.966   5.933  0.00  0.00    +0.211 HD
ENDBRANCH  19  20
ENDBRANCH  16  19
ENDBRANCH  14  16
ENDBRANCH   1  12
BRANCH   1  22
ATOM     22  CB  MET A   2       7.545  26.746   7.953  0.00  0.00    +0.041 C 
BRANCH  22  23
ATOM     23  CG  MET A   2       7.182  26.740   6.518  0.00  0.00    +0.060 C 
BRANCH  23  24
ATOM     24  SD  MET A   2       7.952  28.133   5.750  0.00  0.00    -0.139 S 
ATOM     25  CE  MET A   2       7.359  27.870   4.012  0.00  0.00    +0.069 C 
ENDBRANCH  23  24
ENDBRANCH  22  23
ENDBRANCH   1  22
TORSDOF 12
REMARK  Name = ../refined-set-2016/1vyg/1vyg_pocket.pdb
REMARK  239 active torsions:
REMARK  status: ('A' for Active; 'I' for Inactive)
REMARK    1  A    between atoms: _1  and  _3
REMARK    2  A    between atoms: _3  and  _4
REMARK    3  A    between atoms: _3  and  _6
REMARK    4  A    between atoms: _6  and  _7
REMARK    5  A    between atoms: _10  and  _12
REMARK    6  A    between atoms: _12  and  _13
REMARK    7  A    between atoms: _12  and  _15
REMARK    8  A    between atoms: _15  and  _16
REMARK    9  A    between atoms: _16  and  _17
REMARK   10  A    between atoms: _20  and  _22
REMARK   11  A    between atoms: _22  and  _23
REMARK   12  A    between atoms: _22  and  _25
REMARK   13  A    between atoms: _25  and  _26
REMARK   14  A    between atoms: _28  and  _30
REMARK   15  A    between atoms: _30  and  _31
REMARK   16  A    between atoms: _30  and  _33
REMARK   17  A    between atoms: _33  and  _34
REMARK   18  A    between atoms: _40  and  _42
REMARK   19  A    between atoms: _42  and  _43
REMARK   20  A    between atoms: _42  and  _45
REMARK   21  A    between atoms: _48  and  _50
REMARK   22  A    between atoms: _50  and  _51
REMARK   23  A    between atoms: _50  and  _53
REMARK   24  A    between atoms: _53  and  _54
REMARK   25  A    between atoms: _54  and  _55
REMARK   26  A    between atoms: _57  and  _59
REMARK   27  A    between atoms: _59  and  _60
REMARK   28  A    between atoms: _59  and  _62
REMARK   29  A    between atoms: _62  and  _63
REMARK   30  A    between atoms: _65  and  _67
REMARK   31  A    between atoms: _67  and  _68
REMARK   32  A    between atoms: _67  and  _70
REMARK   33  A    between atoms: _70  and  _71
REMARK   34  A    between atoms: _74  and  _76
REMARK   35  A    between atoms: _76  and  _77
REMARK   36  A    between atoms: _79  and  _81
REMARK   37  A    between atoms: _81  and  _82
REMARK   38  A    between atoms: _81  and  _84
REMARK   39  A    between atoms: _87  and  _89
REMARK   40  A    between atoms: _89  and  _90
REMARK   41  A    between atoms: _89  and  _92
REMARK   42  A    between atoms: _92  and  _93
REMARK   43  A    between atoms: _95  and  _97
REMARK   44  A    between atoms: _97  and  _98
REMARK   45  A    between atoms: _101  and  _103
REMARK   46  A    between atoms: _103  and  _104
REMARK   47  A    between atoms: _103  and  _106
REMARK   48  A    between atoms: _106  and  _107
REMARK   49  A    between atoms: _110  and  _112
REMARK   50  A    between atoms: _112  and  _113
REMARK   51  A    between atoms: _112  and  _115
REMARK   52  A    between atoms: _115  and  _116
REMARK   53  A    between atoms: _116  and  _117
REMARK   54  A    between atoms: _117  and  _118
REMARK   55  A    between atoms: _127  and  _129
REMARK   56  A    between atoms: _129  and  _130
REMARK   57  A    between atoms: _129  and  _132
REMARK   58  A    between atoms: _132  and  _133
REMARK   59  A    between atoms: _133  and  _134
REMARK   60  A    between atoms: _139  and  _141
REMARK   61  A    between atoms: _141  and  _142
REMARK   62  A    between atoms: _141  and  _144
REMARK   63  A    between atoms: _144  and  _145
REMARK   64  A    between atoms: _148  and  _150
REMARK   65  A    between atoms: _150  and  _151
REMARK   66  A    between atoms: _153  and  _155
REMARK   67  A    between atoms: _155  and  _156
REMARK   68  A    between atoms: _155  and  _158
REMARK   69  A    between atoms: _158  and  _159
REMARK   70  A    between atoms: _164  and  _166
REMARK   71  A    between atoms: _166  and  _167
REMARK   72  A    between atoms: _166  and  _169
REMARK   73  A    between atoms: _169  and  _170
REMARK   74  A    between atoms: _173  and  _175
REMARK   75  A    between atoms: _175  and  _176
REMARK   76  A    between atoms: _175  and  _178
REMARK   77  A    between atoms: _181  and  _183
REMARK   78  A    between atoms: _183  and  _184
REMARK   79  A    between atoms: _183  and  _186
REMARK   80  A    between atoms: _186  and  _187
REMARK   81  A    between atoms: _191  and  _192
REMARK   82  A    between atoms: _197  and  _199
REMARK   83  A    between atoms: _199  and  _200
REMARK   84  A    between atoms: _199  and  _202
REMARK   85  A    between atoms: _202  and  _203
REMARK   86  A    between atoms: _206  and  _208
REMARK   87  A    between atoms: _208  and  _209
REMARK   88  A    between atoms: _208  and  _211
REMARK   89  A    between atoms: _214  and  _216
REMARK   90  A    between atoms: _216  and  _217
REMARK   91  A    between atoms: _216  and  _219
REMARK   92  A    between atoms: _219  and  _220
REMARK   93  A    between atoms: _226  and  _228
REMARK   94  A    between atoms: _228  and  _229
REMARK   95  A    between atoms: _228  and  _231
REMARK   96  A    between atoms: _231  and  _232
REMARK   97  A    between atoms: _232  and  _233
REMARK   98  A    between atoms: _235  and  _237
REMARK   99  A    between atoms: _237  and  _238
REMARK  100  A    between atoms: _237  and  _240
REMARK  101  A    between atoms: _240  and  _241
REMARK  102  A    between atoms: _244  and  _246
REMARK  103  A    between atoms: _246  and  _247
REMARK  104  A    between atoms: _246  and  _249
REMARK  105  A    between atoms: _249  and  _250
REMARK  106  A    between atoms: _250  and  _251
REMARK  107  A    between atoms: _254  and  _256
REMARK  108  A    between atoms: _256  and  _257
REMARK  109  A    between atoms: _256  and  _259
REMARK  110  A    between atoms: _259  and  _260
REMARK  111  A    between atoms: _262  and  _264
REMARK  112  A    between atoms: _264  and  _265
REMARK  113  A    between atoms: _264  and  _267
REMARK  114  A    between atoms: _267  and  _268
REMARK  115  A    between atoms: _271  and  _273
REMARK  116  A    between atoms: _273  and  _274
REMARK  117  A    between atoms: _273  and  _276
REMARK  118  A    between atoms: _276  and  _277
REMARK  119  A    between atoms: _283  and  _285
REMARK  120  A    between atoms: _285  and  _286
REMARK  121  A    between atoms: _285  and  _288
REMARK  122  A    between atoms: _288  and  _289
REMARK  123  A    between atoms: _289  and  _290
REMARK  124  A    between atoms: _290  and  _291
REMARK  125  A    between atoms: _291  and  _292
REMARK  126  A    between atoms: _296  and  _298
REMARK  127  A    between atoms: _298  and  _299
REMARK  128  A    between atoms: _298  and  _301
REMARK  129  A    between atoms: _301  and  _302
REMARK  130  A    between atoms: _307  and  _309
REMARK  131  A    between atoms: _309  and  _310
REMARK  132  A    between atoms: _309  and  _312
REMARK  133  A    between atoms: _312  and  _313
REMARK  134  A    between atoms: _316  and  _318
REMARK  135  A    between atoms: _318  and  _319
REMARK  136  A    between atoms: _318  and  _321
REMARK  137  A    between atoms: _321  and  _322
REMARK  138  A    between atoms: _322  and  _323
REMARK  139  A    between atoms: _326  and  _328
REMARK  140  A    between atoms: _328  and  _329
REMARK  141  A    between atoms: _328  and  _331
REMARK  142  A    between atoms: _331  and  _332
REMARK  143  A    between atoms: _335  and  _337
REMARK  144  A    between atoms: _337  and  _338
REMARK  145  A    between atoms: _337  and  _340
REMARK  146  A    between atoms: _340  and  _341
REMARK  147  A    between atoms: _343  and  _345
REMARK  148  A    between atoms: _345  and  _346
REMARK  149  A    between atoms: _345  and  _348
REMARK  150  A    between atoms: _348  and  _349
REMARK  151  A    between atoms: _352  and  _354
REMARK  152  A    between atoms: _354  and  _355
REMARK  153  A    between atoms: _357  and  _359
REMARK  154  A    between atoms: _359  and  _360
REMARK  155  A    between atoms: _359  and  _362
REMARK  156  A    between atoms: _362  and  _363
REMARK  157  A    between atoms: _363  and  _364
REMARK  158  A    between atoms: _364  and  _365
REMARK  159  A    between atoms: _374  and  _376
REMARK  160  A    between atoms: _376  and  _377
REMARK  161  A    between atoms: _376  and  _379
REMARK  162  A    between atoms: _379  and  _380
REMARK  163  A    between atoms: _380  and  _381
REMARK  164  A    between atoms: _386  and  _388
REMARK  165  A    between atoms: _388  and  _389
REMARK  166  A    between atoms: _388  and  _391
REMARK  167  A    between atoms: _391  and  _392
REMARK  168  A    between atoms: _392  and  _393
REMARK  169  A    between atoms: _398  and  _400
REMARK  170  A    between atoms: _400  and  _401
REMARK  171  A    between atoms: _400  and  _403
REMARK  172  A    between atoms: _403  and  _404
REMARK  173  A    between atoms: _407  and  _409
REMARK  174  A    between atoms: _409  and  _410
REMARK  175  A    between atoms: _409  and  _412
REMARK  176  A    between atoms: _415  and  _417
REMARK  177  A    between atoms: _417  and  _418
REMARK  178  A    between atoms: _417  and  _420
REMARK  179  A    between atoms: _420  and  _421
REMARK  180  A    between atoms: _424  and  _426
REMARK  181  A    between atoms: _426  and  _427
REMARK  182  A    between atoms: _426  and  _429
REMARK  183  A    between atoms: _432  and  _434
REMARK  184  A    between atoms: _434  and  _435
REMARK  185  A    between atoms: _434  and  _437
REMARK  186  A    between atoms: _437  and  _438
REMARK  187  A    between atoms: _438  and  _439
REMARK  188  A    between atoms: _439  and  _440
REMARK  189  A    between atoms: _449  and  _451
REMARK  190  A    between atoms: _451  and  _452
REMARK  191  A    between atoms: _451  and  _454
REMARK  192  A    between atoms: _454  and  _455
REMARK  193  A    between atoms: _455  and  _456
REMARK  194  A    between atoms: _458  and  _460
REMARK  195  A    between atoms: _460  and  _461
REMARK  196  A    between atoms: _460  and  _463
REMARK  197  A    between atoms: _463  and  _464
REMARK  198  A    between atoms: _464  and  _465
REMARK  199  A    between atoms: _465  and  _466
REMARK  200  A    between atoms: _466  and  _467
REMARK  201  A    between atoms: _471  and  _473
REMARK  202  A    between atoms: _473  and  _474
REMARK  203  A    between atoms: _473  and  _476
REMARK  204  A    between atoms: _476  and  _477
REMARK  205  A    between atoms: _480  and  _482
REMARK  206  A    between atoms: _482  and  _483
REMARK  207  A    between atoms: _482  and  _485
REMARK  208  A    between atoms: _485  and  _486
REMARK  209  A    between atoms: _489  and  _491
REMARK  210  A    between atoms: _491  and  _492
REMARK  211  A    between atoms: _491  and  _494
REMARK  212  A    between atoms: _497  and  _499
REMARK  213  A    between atoms: _499  and  _500
REMARK  214  A    between atoms: _499  and  _502
REMARK  215  A    between atoms: _502  and  _503
REMARK  216  A    between atoms: _506  and  _508
REMARK  217  A    between atoms: _508  and  _509
REMARK  218  A    between atoms: _508  and  _511
REMARK  219  A    between atoms: _514  and  _516
REMARK  220  A    between atoms: _516  and  _517
REMARK  221  A    between atoms: _520  and  _522
REMARK  222  A    between atoms: _522  and  _523
REMARK  223  A    between atoms: _522  and  _525
REMARK  224  A    between atoms: _525  and  _526
REMARK  225  A    between atoms: _529  and  _531
REMARK  226  A    between atoms: _531  and  _532
REMARK  227  A    between atoms: _531  and  _534
REMARK  228  A    between atoms: _534  and  _535
REMARK  229  A    between atoms: _535  and  _536
REMARK  230  A    between atoms: _536  and  _537
REMARK  231  A    between atoms: _546  and  _548
REMARK  232  A    between atoms: _548  and  _549
REMARK  233  A    between atoms: _548  and  _551
REMARK  234  A    between atoms: _551  and  _552
REMARK  235  A    between atoms: _557  and  _559
REMARK  236  A    between atoms: _559  and  _560
REMARK  237  A    between atoms: _559  and  _562
REMARK  238  A    between atoms: _562  and  _563
REMARK  239  A    between atoms: _568  and  _569
REMARK                            x       y       z     vdW  Elec       q    Type
REMARK                         _______ _______ _______ _____ _____    ______ ____
ROOT
ATOM      1  C   GLY A   2       1.977  27.632  11.438  0.00  0.00    +0.243 C 
ATOM      2  O   GLY A   2       0.960  28.330  11.485  0.00  0.00    -0.273 OA
ATOM      3  N   VAL A   3       3.015  27.952  10.678  0.00  0.00    -0.297 N 
ATOM      4  H   VAL A   3       3.887  27.388  10.728  0.00  0.00    +0.150 HD
ENDROOT
BRANCH   1   5
ATOM      5  CA  GLY A   2       2.056  26.346  12.241  0.00  0.00    +0.176 C 
BRANCH   5   8
ATOM      6  C   LEU A   1       4.354  26.304  12.946  0.00  0.00    +0.238 C 
ATOM      7  O   LEU A   1       4.183  27.298  13.632  0.00  0.00    -0.274 OA
ATOM      8  N   GLY A   2       3.375  25.761  12.254  0.00  0.00    -0.296 N 
ATOM      9  H   GLY A   2       3.555  24.895  11.707  0.00  0.00    +0.150 HD
BRANCH   6  10
ATOM     10  CA  LEU A   1       5.726  25.650  12.855  0.00  0.00    +0.145 C 
BRANCH  10  11
ATOM     11  N   LEU A   1       5.742  24.424  12.058  0.00  0.00    -0.238 NA
ATOM     12  H   LEU A   1       6.084  24.462  11.076  0.00  0.00    +0.142 HD
ENDBRANCH  10  11
BRANCH  10  13
ATOM     13  CB  LEU A   1       6.745  26.657  12.310  0.00  0.00    +0.026 C 
BRANCH  13  14
ATOM     14  CG  LEU A   1       8.177  26.159  12.501  0.00  0.00    +0.002 C 
ATOM     15  CD2 LEU A   1       8.589  26.249  13.995  0.00  0.00    +0.000 C 
ATOM     16  CD1 LEU A   1       9.142  26.921  11.621  0.00  0.00    +0.000 C 
ENDBRANCH  13  14
ENDBRANCH  10  13
ENDBRANCH   6  10
ENDBRANCH   5   8
ENDBRANCH   1   5
BRANCH   3  17
ATOM     17  CA  VAL A   3       2.937  29.092   9.773  0.00  0.00    +0.149 C 
BRANCH  17  18
ATOM     18  C   VAL A   3       1.648  28.936   8.986  0.00  0.00    +0.241 C 
ATOM     19  N   SER A   4       0.910  30.025   8.792  0.00  0.00    -0.296 N 
ATOM     20  H   SER A   4       1.256  30.949   9.120  0.00  0.00    +0.150 HD
ATOM     21  O   VAL A   3       1.313  27.824   8.580  0.00  0.00    -0.273 OA
BRANCH  19  22
ATOM     22  CA  SER A   4      -0.382  29.932   8.122  0.00  0.00    +0.166 C 
BRANCH  22  23
ATOM     23  C   SER A   4      -0.159  29.412   6.715  0.00  0.00    +0.229 C 
ATOM     24  O   SER A   4       0.957  29.397   6.227  0.00  0.00    -0.286 OA
ENDBRANCH  22  23
BRANCH  22  25
ATOM     25  CB  SER A   4      -1.082  31.287   8.062  0.00  0.00    +0.165 C 
BRANCH  25  26
ATOM     26  OG  SER A   4      -0.445  32.142   7.132  0.00  0.00    -0.380 OA
ATOM     27  H   SER A   4      -0.915  33.013   7.110  0.00  0.00    +0.211 HD
ENDBRANCH  25  26
ENDBRANCH  22  25
ENDBRANCH  19  22
ENDBRANCH  17  18
BRANCH  17  28
ATOM     28  CB  VAL A   3       4.132  29.161   8.809  0.00  0.00    +0.027 C 
ATOM     29  CG2 VAL A   3       5.415  29.282   9.587  0.00  0.00    +0.002 C 
ATOM     30  CG1 VAL A   3       4.004  30.346   7.853  0.00  0.00    +0.002 C 
ENDBRANCH  17  28
ENDBRANCH   3  17
TORSDOF 13
REMARK  Name = ../refined-set-2016/1vyg/1vyg_pocket.pdb
REMARK  239 active torsions:
REMARK  status: ('A' for Active; 'I' for Inactive)
REMARK    1  A    between atoms: _1  and  _3
REMARK    2  A    between atoms: _3  and  _4
REMARK    3  A    between atoms: _3  and  _6
REMARK    4  A    between atoms: _6  and  _7
REMARK    5  A    between atoms: _10  and  _12
REMARK    6  A    between atoms: _12  and  _13
REMARK    7  A    between atoms: _12  and  _15
REMARK    8  A    between atoms: _15  and  _16
REMARK    9  A    between atoms: _16  and  _17
REMARK   10  A    between atoms: _20  and  _22
REMARK   11  A    between atoms: _22  and  _23
REMARK   12  A    between atoms: _22  and  _25
REMARK   13  A    between atoms: _25  and  _26
REMARK   14  A    between atoms: _28  and  _30
REMARK   15  A    between atoms: _30  and  _31
REMARK   16  A    between atoms: _30  and  _33
REMARK   17  A    between atoms: _33  and  _34
REMARK   18  A    between atoms: _40  and  _42
REMARK   19  A    between atoms: _42  and  _43
REMARK   20  A    between atoms: _42  and  _45
REMARK   21  A    between atoms: _48  and  _50
REMARK   22  A    between atoms: _50  and  _51
REMARK   23  A    between atoms: _50  and  _53
REMARK   24  A    between atoms: _53  and  _54
REMARK   25  A    between atoms: _54  and  _55
REMARK   26  A    between atoms: _57  and  _59
REMARK   27  A    between atoms: _59  and  _60
REMARK   28  A    between atoms: _59  and  _62
REMARK   29  A    between atoms: _62  and  _63
REMARK   30  A    between atoms: _65  and  _67
REMARK   31  A    between atoms: _67  and  _68
REMARK   32  A    between atoms: _67  and  _70
REMARK   33  A    between atoms: _70  and  _71
REMARK   34  A    between atoms: _74  and  _76
REMARK   35  A    between atoms: _76  and  _77
REMARK   36  A    between atoms: _79  and  _81
REMARK   37  A    between atoms: _81  and  _82
REMARK   38  A    between atoms: _81  and  _84
REMARK   39  A    between atoms: _87  and  _89
REMARK   40  A    between atoms: _89  and  _90
REMARK   41  A    between atoms: _89  and  _92
REMARK   42  A    between atoms: _92  and  _93
REMARK   43  A    between atoms: _95  and  _97
REMARK   44  A    between atoms: _97  and  _98
REMARK   45  A    between atoms: _101  and  _103
REMARK   46  A    between atoms: _103  and  _104
REMARK   47  A    between atoms: _103  and  _106
REMARK   48  A    between atoms: _106  and  _107
REMARK   49  A    between atoms: _110  and  _112
REMARK   50  A    between atoms: _112  and  _113
REMARK   51  A    between atoms: _112  and  _115
REMARK   52  A    between atoms: _115  and  _116
REMARK   53  A    between atoms: _116  and  _117
REMARK   54  A    between atoms: _117  and  _118
REMARK   55  A    between atoms: _127  and  _129
REMARK   56  A    between atoms: _129  and  _130
REMARK   57  A    between atoms: _129  and  _132
REMARK   58  A    between atoms: _132  and  _133
REMARK   59  A    between atoms: _133  and  _134
REMARK   60  A    between atoms: _139  and  _141
REMARK   61  A    between atoms: _141  and  _142
REMARK   62  A    between atoms: _141  and  _144
REMARK   63  A    between atoms: _144  and  _145
REMARK   64  A    between atoms: _148  and  _150
REMARK   65  A    between atoms: _150  and  _151
REMARK   66  A    between atoms: _153  and  _155
REMARK   67  A    between atoms: _155  and  _156
REMARK   68  A    between atoms: _155  and  _158
REMARK   69  A    between atoms: _158  and  _159
REMARK   70  A    between atoms: _164  and  _166
REMARK   71  A    between atoms: _166  and  _167
REMARK   72  A    between atoms: _166  and  _169
REMARK   73  A    between atoms: _169  and  _170
REMARK   74  A    between atoms: _173  and  _175
REMARK   75  A    between atoms: _175  and  _176
REMARK   76  A    between atoms: _175  and  _178
REMARK   77  A    between atoms: _181  and  _183
REMARK   78  A    between atoms: _183  and  _184
REMARK   79  A    between atoms: _183  and  _186
REMARK   80  A    between atoms: _186  and  _187
REMARK   81  A    between atoms: _191  and  _192
REMARK   82  A    between atoms: _197  and  _199
REMARK   83  A    between atoms: _199  and  _200
REMARK   84  A    between atoms: _199  and  _202
REMARK   85  A    between atoms: _202  and  _203
REMARK   86  A    between atoms: _206  and  _208
REMARK   87  A    between atoms: _208  and  _209
REMARK   88  A    between atoms: _208  and  _211
REMARK   89  A    between atoms: _214  and  _216
REMARK   90  A    between atoms: _216  and  _217
REMARK   91  A    between atoms: _216  and  _219
REMARK   92  A    between atoms: _219  and  _220
REMARK   93  A    between atoms: _226  and  _228
REMARK   94  A    between atoms: _228  and  _229
REMARK   95  A    between atoms: _228  and  _231
REMARK   96  A    between atoms: _231  and  _232
REMARK   97  A    between atoms: _232  and  _233
REMARK   98  A    between atoms: _235  and  _237
REMARK   99  A    between atoms: _237  and  _238
REMARK  100  A    between atoms: _237  and  _240
REMARK  101  A    between atoms: _240  and  _241
REMARK  102  A    between atoms: _244  and  _246
REMARK  103  A    between atoms: _246  and  _247
REMARK  104  A    between atoms: _246  and  _249
REMARK  105  A    between atoms: _249  and  _250
REMARK  106  A    between atoms: _250  and  _251
REMARK  107  A    between atoms: _254  and  _256
REMARK  108  A    between atoms: _256  and  _257
REMARK  109  A    between atoms: _256  and  _259
REMARK  110  A    between atoms: _259  and  _260
REMARK  111  A    between atoms: _262  and  _264
REMARK  112  A    between atoms: _264  and  _265
REMARK  113  A    between atoms: _264  and  _267
REMARK  114  A    between atoms: _267  and  _268
REMARK  115  A    between atoms: _271  and  _273
REMARK  116  A    between atoms: _273  and  _274
REMARK  117  A    between atoms: _273  and  _276
REMARK  118  A    between atoms: _276  and  _277
REMARK  119  A    between atoms: _283  and  _285
REMARK  120  A    between atoms: _285  and  _286
REMARK  121  A    between atoms: _285  and  _288
REMARK  122  A    between atoms: _288  and  _289
REMARK  123  A    between atoms: _289  and  _290
REMARK  124  A    between atoms: _290  and  _291
REMARK  125  A    between atoms: _291  and  _292
REMARK  126  A    between atoms: _296  and  _298
REMARK  127  A    between atoms: _298  and  _299
REMARK  128  A    between atoms: _298  and  _301
REMARK  129  A    between atoms: _301  and  _302
REMARK  130  A    between atoms: _307  and  _309
REMARK  131  A    between atoms: _309  and  _310
REMARK  132  A    between atoms: _309  and  _312
REMARK  133  A    between atoms: _312  and  _313
REMARK  134  A    between atoms: _316  and  _318
REMARK  135  A    between atoms: _318  and  _319
REMARK  136  A    between atoms: _318  and  _321
REMARK  137  A    between atoms: _321  and  _322
REMARK  138  A    between atoms: _322  and  _323
REMARK  139  A    between atoms: _326  and  _328
REMARK  140  A    between atoms: _328  and  _329
REMARK  141  A    between atoms: _328  and  _331
REMARK  142  A    between atoms: _331  and  _332
REMARK  143  A    between atoms: _335  and  _337
REMARK  144  A    between atoms: _337  and  _338
REMARK  145  A    between atoms: _337  and  _340
REMARK  146  A    between atoms: _340  and  _341
REMARK  147  A    between atoms: _343  and  _345
REMARK  148  A    between atoms: _345  and  _346
REMARK  149  A    between atoms: _345  and  _348
REMARK  150  A    between atoms: _348  and  _349
REMARK  151  A    between atoms: _352  and  _354
REMARK  152  A    between atoms: _354  and  _355
REMARK  153  A    between atoms: _357  and  _359
REMARK  154  A    between atoms: _359  and  _360
REMARK  155  A    between atoms: _359  and  _362
REMARK  156  A    between atoms: _362  and  _363
REMARK  157  A    between atoms: _363  and  _364
REMARK  158  A    between atoms: _364  and  _365
REMARK  159  A    between atoms: _374  and  _376
REMARK  160  A    between atoms: _376  and  _377
REMARK  161  A    between atoms: _376  and  _379
REMARK  162  A    between atoms: _379  and  _380
REMARK  163  A    between atoms: _380  and  _381
REMARK  164  A    between atoms: _386  and  _388
REMARK  165  A    between atoms: _388  and  _389
REMARK  166  A    between atoms: _388  and  _391
REMARK  167  A    between atoms: _391  and  _392
REMARK  168  A    between atoms: _392  and  _393
REMARK  169  A    between atoms: _398  and  _400
REMARK  170  A    between atoms: _400  and  _401
REMARK  171  A    between atoms: _400  and  _403
REMARK  172  A    between atoms: _403  and  _404
REMARK  173  A    between atoms: _407  and  _409
REMARK  174  A    between atoms: _409  and  _410
REMARK  175  A    between atoms: _409  and  _412
REMARK  176  A    between atoms: _415  and  _417
REMARK  177  A    between atoms: _417  and  _418
REMARK  178  A    between atoms: _417  and  _420
REMARK  179  A    between atoms: _420  and  _421
REMARK  180  A    between atoms: _424  and  _426
REMARK  181  A    between atoms: _426  and  _427
REMARK  182  A    between atoms: _426  and  _429
REMARK  183  A    between atoms: _432  and  _434
REMARK  184  A    between atoms: _434  and  _435
REMARK  185  A    between atoms: _434  and  _437
REMARK  186  A    between atoms: _437  and  _438
REMARK  187  A    between atoms: _438  and  _439
REMARK  188  A    between atoms: _439  and  _440
REMARK  189  A    between atoms: _449  and  _451
REMARK  190  A    between atoms: _451  and  _452
REMARK  191  A    between atoms: _451  and  _454
REMARK  192  A    between atoms: _454  and  _455
REMARK  193  A    between atoms: _455  and  _456
REMARK  194  A    between atoms: _458  and  _460
REMARK  195  A    between atoms: _460  and  _461
REMARK  196  A    between atoms: _460  and  _463
REMARK  197  A    between atoms: _463  and  _464
REMARK  198  A    between atoms: _464  and  _465
REMARK  199  A    between atoms: _465  and  _466
REMARK  200  A    between atoms: _466  and  _467
REMARK  201  A    between atoms: _471  and  _473
REMARK  202  A    between atoms: _473  and  _474
REMARK  203  A    between atoms: _473  and  _476
REMARK  204  A    between atoms: _476  and  _477
REMARK  205  A    between atoms: _480  and  _482
REMARK  206  A    between atoms: _482  and  _483
REMARK  207  A    between atoms: _482  and  _485
REMARK  208  A    between atoms: _485  and  _486
REMARK  209  A    between atoms: _489  and  _491
REMARK  210  A    between atoms: _491  and  _492
REMARK  211  A    between atoms: _491  and  _494
REMARK  212  A    between atoms: _497  and  _499
REMARK  213  A    between atoms: _499  and  _500
REMARK  214  A    between atoms: _499  and  _502
REMARK  215  A    between atoms: _502  and  _503
REMARK  216  A    between atoms: _506  and  _508
REMARK  217  A    between atoms: _508  and  _509
REMARK  218  A    between atoms: _508  and  _511
REMARK  219  A    between atoms: _514  and  _516
REMARK  220  A    between atoms: _516  and  _517
REMARK  221  A    between atoms: _520  and  _522
REMARK  222  A    between atoms: _522  and  _523
REMARK  223  A    between atoms: _522  and  _525
REMARK  224  A    between atoms: _525  and  _526
REMARK  225  A    between atoms: _529  and  _531
REMARK  226  A    between atoms: _531  and  _532
REMARK  227  A    between atoms: _531  and  _534
REMARK  228  A    between atoms: _534  and  _535
REMARK  229  A    between atoms: _535  and  _536
REMARK  230  A    between atoms: _536  and  _537
REMARK  231  A    between atoms: _546  and  _548
REMARK  232  A    between atoms: _548  and  _549
REMARK  233  A    between atoms: _548  and  _551
REMARK  234  A    between atoms: _551  and  _552
REMARK  235  A    between atoms: _557  and  _559
REMARK  236  A    between atoms: _559  and  _560
REMARK  237  A    between atoms: _559  and  _562
REMARK  238  A    between atoms: _562  and  _563
REMARK  239  A    between atoms: _568  and  _569
REMARK                            x       y       z     vdW  Elec       q    Type
REMARK                         _______ _______ _______ _____ _____    ______ ____
ROOT
ATOM      1  C   GLY A   6       8.456  30.317   1.053  0.00  0.00    +0.243 C 
ATOM      2  O   GLY A   6       9.664  30.295   0.831  0.00  0.00    -0.273 OA
ATOM      3  N   ASN A   7       7.586  29.588   0.373  0.00  0.00    -0.297 N 
ATOM      4  H   ASN A   7       6.575  29.674   0.602  0.00  0.00    +0.150 HD
ENDROOT
BRANCH   1   5
ATOM      5  CA  GLY A   6       7.860  31.214   2.121  0.00  0.00    +0.176 C 
BRANCH   5   7
ATOM      6  C   ILE A   5       6.480  32.577   0.649  0.00  0.00    +0.241 C 
ATOM      7  N   GLY A   6       6.593  31.814   1.731  0.00  0.00    -0.295 N 
ATOM      8  H   GLY A   6       5.751  31.641   2.316  0.00  0.00    +0.150 HD
ATOM      9  O   ILE A   5       7.440  32.892  -0.018  0.00  0.00    -0.273 OA
BRANCH   6  10
ATOM     10  CA  ILE A   5       5.090  33.077   0.267  0.00  0.00    +0.149 C 
BRANCH  10  12
ATOM     11  C   GLN A   4       4.150  30.839  -0.135  0.00  0.00    +0.241 C 
ATOM     12  N   ILE A   5       4.075  32.033   0.459  0.00  0.00    -0.297 N 
ATOM     13  H   ILE A   5       3.266  32.231   1.082  0.00  0.00    +0.150 HD
ATOM     14  O   GLN A   4       5.014  30.536  -0.980  0.00  0.00    -0.273 OA
BRANCH  11  15
ATOM     15  CA  GLN A   4       3.121  29.819   0.289  0.00  0.00    +0.149 C 
BRANCH  15  18
ATOM     16  C   ARG A   3       4.114  29.409   2.470  0.00  0.00    +0.241 C 
ATOM     17  O   ARG A   3       5.204  29.113   1.983  0.00  0.00    -0.273 OA
ATOM     18  N   GLN A   4       3.061  29.781   1.746  0.00  0.00    -0.297 N 
ATOM     19  H   GLN A   4       2.179  30.049   2.228  0.00  0.00    +0.150 HD
BRANCH  16  20
ATOM     20  CA  ARG A   3       3.920  29.350   3.962  0.00  0.00    +0.149 C 
BRANCH  20  22
ATOM     21  C   THR A   2       3.557  31.736   4.283  0.00  0.00    +0.243 C 
ATOM     22  N   ARG A   3       3.152  30.478   4.465  0.00  0.00    -0.297 N 
ATOM     23  H   ARG A   3       2.266  30.300   4.979  0.00  0.00    +0.150 HD
ATOM     24  O   THR A   2       4.615  32.017   3.751  0.00  0.00    -0.273 OA
BRANCH  21  25
ATOM     25  CA  THR A   2       2.621  32.853   4.715  0.00  0.00    +0.176 C 
BRANCH  25  27
ATOM     26  C   ALA A   1       0.746  32.404   3.264  0.00  0.00    +0.238 C 
ATOM     27  N   THR A   2       1.250  32.423   4.488  0.00  0.00    -0.295 N 
ATOM     28  H   THR A   2       0.661  32.128   5.293  0.00  0.00    +0.150 HD
ATOM     29  O   ALA A   1       1.399  32.726   2.282  0.00  0.00    -0.274 OA
BRANCH  26  30
ATOM     30  CA  ALA A   1      -0.705  31.967   3.111  0.00  0.00    +0.145 C 
ATOM     31  CB  ALA A   1      -1.637  33.151   3.364  0.00  0.00    +0.028 C 
BRANCH  30  32
ATOM     32  N   ALA A   1      -1.058  30.852   3.965  0.00  0.00    -0.238 NA
ATOM     33  H   ALA A   1      -1.752  31.005   4.724  0.00  0.00    +0.142 HD
ENDBRANCH  30  32
ENDBRANCH  26  30
ENDBRANCH  25  27
BRANCH  25  34
ATOM     34  CB  THR A   2       2.828  33.273   6.170  0.00  0.00    +0.137 C 
ATOM     35  CG2 THR A   2       4.221  33.831   6.413  0.00  0.00    +0.034 C 
BRANCH  34  36
ATOM     36  OG1 THR A   2       1.991  34.400   6.451  0.00  0.00    -0.382 OA
ATOM     37  HG1 THR A   2       2.119  34.678   7.392  0.00  0.00    +0.210 HD
ENDBRANCH  34  36
ENDBRANCH  25  34
ENDBRANCH  21  25
ENDBRANCH  20  22
BRANCH  20  38
ATOM     38  CB  ARG A   3       3.244  28.043   4.265  0.00  0.00    +0.033 C 
BRANCH  38  39
ATOM     39  CG  ARG A   3       3.380  27.649   5.693  0.00  0.00    +0.045 C 
BRANCH  39  40
ATOM     40  CD  ARG A   3       2.625  26.412   6.092  0.00  0.00    +0.174 C 
BRANCH  40  41
ATOM     41  NE  ARG A   3       2.570  25.432   5.015  0.00  0.00    -0.265 N 
ATOM     42  CZ  ARG A   3       1.637  24.504   4.897  0.00  0.00    +0.342 C 
ATOM     43  NH2 ARG A   3       0.680  24.377   5.815  0.00  0.00    -0.292 N 
ATOM     44 HH21 ARG A   3       0.661  25.013   6.638  0.00  0.00    +0.255 HD
ATOM     45 HH22 ARG A   3      -0.048  23.642   5.709  0.00  0.00    +0.255 HD
ATOM     46  NH1 ARG A   3       1.671  23.682   3.865  0.00  0.00    -0.292 N 
ATOM     47 HH11 ARG A   3       0.942  22.947   3.761  0.00  0.00    +0.255 HD
ATOM     48 HH12 ARG A   3       2.427  23.769   3.156  0.00  0.00    +0.255 HD
ATOM     49  HE  ARG A   3       3.315  25.465   4.290  0.00  0.00    +0.259 HD
ENDBRANCH  40  41
ENDBRANCH  39  40
ENDBRANCH  38  39
ENDBRANCH  20  38
ENDBRANCH  16  20
ENDBRANCH  15  18
BRANCH  15  50
ATOM     50  CB  GLN A   4       1.754  30.123  -0.341  0.00  0.00    +0.039 C 
BRANCH  50  51
ATOM     51  CG  GLN A   4       0.756  28.940  -0.375  0.00  0.00    +0.087 C 
BRANCH  51  52
ATOM     52  CD  GLN A   4       1.373  27.529  -0.164  0.00  0.00    +0.219 C 
ATOM     53  NE2 GLN A   4       1.177  26.964   1.025  0.00  0.00    -0.329 N 
ATOM     54 HE21 GLN A   4       0.662  27.480   1.767  0.00  0.00    +0.145 HD
ATOM     55 HE22 GLN A   4       1.539  26.007   1.212  0.00  0.00    +0.145 HD
ATOM     56  OE1 GLN A   4       1.976  26.961  -1.076  0.00  0.00    -0.275 OA
ENDBRANCH  51  52
ENDBRANCH  50  51
ENDBRANCH  15  50
ENDBRANCH  11  15
ENDBRANCH  10  12
BRANCH  10  57
ATOM     57  CB  ILE A   5       4.776  34.341   1.097  0.00  0.00    +0.027 C 
ATOM     58  CG2 ILE A   5       5.862  35.415   0.902  0.00  0.00    +0.002 C 
BRANCH  57  59
ATOM     59  CG1 ILE A   5       3.414  34.936   0.734  0.00  0.00    +0.002 C 
ATOM     60  CD1 ILE A   5       3.380  35.619  -0.596  0.00  0.00    +0.000 C 
ENDBRANCH  57  59
ENDBRANCH  10  57
ENDBRANCH   6  10
ENDBRANCH   5   7
ENDBRANCH   1   5
BRANCH   3  61
ATOM     61  CA  ASN A   7       7.988  28.668  -0.686  0.00  0.00    +0.158 C 
BRANCH  61  62
ATOM     62  C   ASN A   7       8.272  29.340  -2.044  0.00  0.00    +0.241 C 
ATOM     63  N   THR A   8       7.882  30.606  -2.221  0.00  0.00    -0.295 N 
ATOM     64  H   THR A   8       7.364  31.090  -1.460  0.00  0.00    +0.150 HD
ATOM     65  O   ASN A   7       8.842  28.701  -2.919  0.00  0.00    -0.273 OA
BRANCH  63  66
ATOM     66  CA  THR A   8       8.168  31.325  -3.462  0.00  0.00    +0.176 C 
BRANCH  66  67
ATOM     67  C   THR A   8       9.377  32.254  -3.356  0.00  0.00    +0.243 C 
ATOM     68  N   VAL A   9       9.373  33.150  -2.371  0.00  0.00    -0.297 N 
ATOM     69  H   VAL A   9       8.665  33.080  -1.613  0.00  0.00    +0.150 HD
ATOM     70  O   THR A   8      10.307  32.160  -4.165  0.00  0.00    -0.273 OA
BRANCH  68  71
ATOM     71  CA  VAL A   9      10.356  34.232  -2.347  0.00  0.00    +0.149 C 
BRANCH  71  72
ATOM     72  C   VAL A   9      11.771  33.749  -2.075  0.00  0.00    +0.241 C 
ATOM     73  O   VAL A   9      11.995  32.731  -1.422  0.00  0.00    -0.273 OA
ATOM     74  N   THR A  10      12.712  34.526  -2.593  0.00  0.00    -0.295 N 
ATOM     75  H   THR A  10      12.417  35.388  -3.094  0.00  0.00    +0.150 HD
BRANCH  74  76
ATOM     76  CA  THR A  10      14.127  34.240  -2.500  0.00  0.00    +0.176 C 
BRANCH  76  77
ATOM     77  C   THR A  10      14.767  35.424  -1.779  0.00  0.00    +0.246 C 
ATOM     78  N   PRO A  11      14.880  35.326  -0.463  0.00  0.00    -0.272 N 
ATOM     79  CD  PRO A  11      14.540  34.193   0.410  0.00  0.00    +0.094 C 
ATOM     80  CG  PRO A  11      14.293  34.890   1.675  0.00  0.00    +0.024 C 
ATOM     81  CB  PRO A  11      15.250  35.926   1.754  0.00  0.00    +0.031 C 
ATOM     82  CA  PRO A  11      15.427  36.417   0.317  0.00  0.00    +0.152 C 
ATOM     83  O   THR A  10      15.133  36.415  -2.393  0.00  0.00    -0.273 OA
BRANCH  82  84
ATOM     84  C   PRO A  11      16.894  36.637   0.033  0.00  0.00    +0.241 C 
ATOM     85  N   THR A  12      17.351  37.820   0.417  0.00  0.00    -0.295 N 
ATOM     86  H   THR A  12      16.671  38.514   0.787  0.00  0.00    +0.150 HD
ATOM     87  O   PRO A  11      17.579  35.757  -0.493  0.00  0.00    -0.273 OA
BRANCH  85  88
ATOM     88  CA  THR A  12      18.733  38.193   0.350  0.00  0.00    +0.176 C 
BRANCH  88  89
ATOM     89  C   THR A  12      19.118  38.560   1.751  0.00  0.00    +0.243 C 
ATOM     90  N   VAL A  13      19.970  37.757   2.367  0.00  0.00    -0.298 N 
ATOM     91  H   VAL A  13      20.296  36.889   1.896  0.00  0.00    +0.150 HD
ATOM     92  O   THR A  12      18.634  39.539   2.285  0.00  0.00    -0.273 OA
BRANCH  90  93
ATOM     93  CA  VAL A  13      20.452  38.082   3.697  0.00  0.00    +0.137 C 
BRANCH  93  94
ATOM     94  CB  VAL A  13      20.318  36.903   4.705  0.00  0.00    +0.026 C 
ATOM     95  CG2 VAL A  13      21.605  36.171   4.902  0.00  0.00    +0.002 C 
ATOM     96  CG1 VAL A  13      19.233  35.931   4.263  0.00  0.00    +0.002 C 
ENDBRANCH  93  94
BRANCH  93  97
ATOM     97  C   VAL A  13      21.863  38.668   3.629  0.00  0.00    +0.227 C 
ATOM     98  O   VAL A  13      22.683  38.287   2.820  0.00  0.00    -0.286 OA
ENDBRANCH  93  97
ENDBRANCH  90  93
ENDBRANCH  88  89
BRANCH  88  99
ATOM     99  CB  THR A  12      18.904  39.382  -0.607  0.00  0.00    +0.137 C 
ATOM    100  CG2 THR A  12      20.353  39.836  -0.723  0.00  0.00    +0.034 C 
BRANCH  99 101
ATOM    101  OG1 THR A  12      18.601  38.952  -1.940  0.00  0.00    -0.382 OA
ATOM    102  HG1 THR A  12      17.667  38.624  -1.976  0.00  0.00    +0.210 HD
ENDBRANCH  99 101
ENDBRANCH  88  99
ENDBRANCH  85  88
ENDBRANCH  82  84
ENDBRANCH  76  77
BRANCH  76 103
ATOM    103  CB  THR A  10      14.726  34.023  -3.911  0.00  0.00    +0.137 C 
ATOM    104  CG2 THR A  10      14.015  32.890  -4.631  0.00  0.00    +0.034 C 
BRANCH 103 105
ATOM    105  OG1 THR A  10      14.449  35.145  -4.750  0.00  0.00    -0.382 OA
ATOM    106  HG1 THR A  10      14.848  35.959  -4.352  0.00  0.00    +0.210 HD
ENDBRANCH 103 105
ENDBRANCH  76 103
ENDBRANCH  74  76
ENDBRANCH  71  72
BRANCH  71 107
ATOM    107  CB  VAL A   9      10.035  35.336  -1.327  0.00  0.00    +0.027 C 
ATOM    108  CG2 VAL A   9      10.484  34.932   0.071  0.00  0.00    +0.002 C 
ATOM    109  CG1 VAL A   9       8.558  35.694  -1.362  0.00  0.00    +0.002 C 
ENDBRANCH  71 107
ENDBRANCH  68  71
ENDBRANCH  66  67
BRANCH  66 110
ATOM    110  CB  THR A   8       6.952  32.159  -3.936  0.00  0.00    +0.137 C 
ATOM    111  CG2 THR A   8       5.745  31.275  -4.225  0.00  0.00    +0.034 C 
BRANCH 110 112
ATOM    112  OG1 THR A   8       6.520  33.036  -2.895  0.00  0.00    -0.382 OA
ATOM    113  HG1 THR A   8       6.259  32.503  -2.103  0.00  0.00    +0.210 HD
ENDBRANCH 110 112
ENDBRANCH  66 110
ENDBRANCH  63  66
ENDBRANCH  61  62
BRANCH  61 114
ATOM    114  CB  ASN A   7       6.924  27.570  -0.836  0.00  0.00    +0.114 C 
BRANCH 114 115
ATOM    115  CG  ASN A   7       6.663  26.831   0.478  0.00  0.00    +0.222 C 
ATOM    116  OD1 ASN A   7       7.579  26.622   1.276  0.00  0.00    -0.275 OA
ATOM    117  ND2 ASN A   7       5.414  26.450   0.710  0.00  0.00    -0.329 N 
ATOM    118 HD21 ASN A   7       5.177  25.954   1.593  0.00  0.00    +0.145 HD
ATOM    119 HD22 ASN A   7       4.672  26.647   0.009  0.00  0.00    +0.145 HD
ENDBRANCH 114 115
ENDBRANCH  61 114
ENDBRANCH   3  61
TORSDOF 46
REMARK  Name = ../refined-set-2016/1vyg/1vyg_pocket.pdb
REMARK  239 active torsions:
REMARK  status: ('A' for Active; 'I' for Inactive)
REMARK    1  A    between atoms: _1  and  _3
REMARK    2  A    between atoms: _3  and  _4
REMARK    3  A    between atoms: _3  and  _6
REMARK    4  A    between atoms: _6  and  _7
REMARK    5  A    between atoms: _10  and  _12
REMARK    6  A    between atoms: _12  and  _13
REMARK    7  A    between atoms: _12  and  _15
REMARK    8  A    between atoms: _15  and  _16
REMARK    9  A    between atoms: _16  and  _17
REMARK   10  A    between atoms: _20  and  _22
REMARK   11  A    between atoms: _22  and  _23
REMARK   12  A    between atoms: _22  and  _25
REMARK   13  A    between atoms: _25  and  _26
REMARK   14  A    between atoms: _28  and  _30
REMARK   15  A    between atoms: _30  and  _31
REMARK   16  A    between atoms: _30  and  _33
REMARK   17  A    between atoms: _33  and  _34
REMARK   18  A    between atoms: _40  and  _42
REMARK   19  A    between atoms: _42  and  _43
REMARK   20  A    between atoms: _42  and  _45
REMARK   21  A    between atoms: _48  and  _50
REMARK   22  A    between atoms: _50  and  _51
REMARK   23  A    between atoms: _50  and  _53
REMARK   24  A    between atoms: _53  and  _54
REMARK   25  A    between atoms: _54  and  _55
REMARK   26  A    between atoms: _57  and  _59
REMARK   27  A    between atoms: _59  and  _60
REMARK   28  A    between atoms: _59  and  _62
REMARK   29  A    between atoms: _62  and  _63
REMARK   30  A    between atoms: _65  and  _67
REMARK   31  A    between atoms: _67  and  _68
REMARK   32  A    between atoms: _67  and  _70
REMARK   33  A    between atoms: _70  and  _71
REMARK   34  A    between atoms: _74  and  _76
REMARK   35  A    between atoms: _76  and  _77
REMARK   36  A    between atoms: _79  and  _81
REMARK   37  A    between atoms: _81  and  _82
REMARK   38  A    between atoms: _81  and  _84
REMARK   39  A    between atoms: _87  and  _89
REMARK   40  A    between atoms: _89  and  _90
REMARK   41  A    between atoms: _89  and  _92
REMARK   42  A    between atoms: _92  and  _93
REMARK   43  A    between atoms: _95  and  _97
REMARK   44  A    between atoms: _97  and  _98
REMARK   45  A    between atoms: _101  and  _103
REMARK   46  A    between atoms: _103  and  _104
REMARK   47  A    between atoms: _103  and  _106
REMARK   48  A    between atoms: _106  and  _107
REMARK   49  A    between atoms: _110  and  _112
REMARK   50  A    between atoms: _112  and  _113
REMARK   51  A    between atoms: _112  and  _115
REMARK   52  A    between atoms: _115  and  _116
REMARK   53  A    between atoms: _116  and  _117
REMARK   54  A    between atoms: _117  and  _118
REMARK   55  A    between atoms: _127  and  _129
REMARK   56  A    between atoms: _129  and  _130
REMARK   57  A    between atoms: _129  and  _132
REMARK   58  A    between atoms: _132  and  _133
REMARK   59  A    between atoms: _133  and  _134
REMARK   60  A    between atoms: _139  and  _141
REMARK   61  A    between atoms: _141  and  _142
REMARK   62  A    between atoms: _141  and  _144
REMARK   63  A    between atoms: _144  and  _145
REMARK   64  A    between atoms: _148  and  _150
REMARK   65  A    between atoms: _150  and  _151
REMARK   66  A    between atoms: _153  and  _155
REMARK   67  A    between atoms: _155  and  _156
REMARK   68  A    between atoms: _155  and  _158
REMARK   69  A    between atoms: _158  and  _159
REMARK   70  A    between atoms: _164  and  _166
REMARK   71  A    between atoms: _166  and  _167
REMARK   72  A    between atoms: _166  and  _169
REMARK   73  A    between atoms: _169  and  _170
REMARK   74  A    between atoms: _173  and  _175
REMARK   75  A    between atoms: _175  and  _176
REMARK   76  A    between atoms: _175  and  _178
REMARK   77  A    between atoms: _181  and  _183
REMARK   78  A    between atoms: _183  and  _184
REMARK   79  A    between atoms: _183  and  _186
REMARK   80  A    between atoms: _186  and  _187
REMARK   81  A    between atoms: _191  and  _192
REMARK   82  A    between atoms: _197  and  _199
REMARK   83  A    between atoms: _199  and  _200
REMARK   84  A    between atoms: _199  and  _202
REMARK   85  A    between atoms: _202  and  _203
REMARK   86  A    between atoms: _206  and  _208
REMARK   87  A    between atoms: _208  and  _209
REMARK   88  A    between atoms: _208  and  _211
REMARK   89  A    between atoms: _214  and  _216
REMARK   90  A    between atoms: _216  and  _217
REMARK   91  A    between atoms: _216  and  _219
REMARK   92  A    between atoms: _219  and  _220
REMARK   93  A    between atoms: _226  and  _228
REMARK   94  A    between atoms: _228  and  _229
REMARK   95  A    between atoms: _228  and  _231
REMARK   96  A    between atoms: _231  and  _232
REMARK   97  A    between atoms: _232  and  _233
REMARK   98  A    between atoms: _235  and  _237
REMARK   99  A    between atoms: _237  and  _238
REMARK  100  A    between atoms: _237  and  _240
REMARK  101  A    between atoms: _240  and  _241
REMARK  102  A    between atoms: _244  and  _246
REMARK  103  A    between atoms: _246  and  _247
REMARK  104  A    between atoms: _246  and  _249
REMARK  105  A    between atoms: _249  and  _250
REMARK  106  A    between atoms: _250  and  _251
REMARK  107  A    between atoms: _254  and  _256
REMARK  108  A    between atoms: _256  and  _257
REMARK  109  A    between atoms: _256  and  _259
REMARK  110  A    between atoms: _259  and  _260
REMARK  111  A    between atoms: _262  and  _264
REMARK  112  A    between atoms: _264  and  _265
REMARK  113  A    between atoms: _264  and  _267
REMARK  114  A    between atoms: _267  and  _268
REMARK  115  A    between atoms: _271  and  _273
REMARK  116  A    between atoms: _273  and  _274
REMARK  117  A    between atoms: _273  and  _276
REMARK  118  A    between atoms: _276  and  _277
REMARK  119  A    between atoms: _283  and  _285
REMARK  120  A    between atoms: _285  and  _286
REMARK  121  A    between atoms: _285  and  _288
REMARK  122  A    between atoms: _288  and  _289
REMARK  123  A    between atoms: _289  and  _290
REMARK  124  A    between atoms: _290  and  _291
REMARK  125  A    between atoms: _291  and  _292
REMARK  126  A    between atoms: _296  and  _298
REMARK  127  A    between atoms: _298  and  _299
REMARK  128  A    between atoms: _298  and  _301
REMARK  129  A    between atoms: _301  and  _302
REMARK  130  A    between atoms: _307  and  _309
REMARK  131  A    between atoms: _309  and  _310
REMARK  132  A    between atoms: _309  and  _312
REMARK  133  A    between atoms: _312  and  _313
REMARK  134  A    between atoms: _316  and  _318
REMARK  135  A    between atoms: _318  and  _319
REMARK  136  A    between atoms: _318  and  _321
REMARK  137  A    between atoms: _321  and  _322
REMARK  138  A    between atoms: _322  and  _323
REMARK  139  A    between atoms: _326  and  _328
REMARK  140  A    between atoms: _328  and  _329
REMARK  141  A    between atoms: _328  and  _331
REMARK  142  A    between atoms: _331  and  _332
REMARK  143  A    between atoms: _335  and  _337
REMARK  144  A    between atoms: _337  and  _338
REMARK  145  A    between atoms: _337  and  _340
REMARK  146  A    between atoms: _340  and  _341
REMARK  147  A    between atoms: _343  and  _345
REMARK  148  A    between atoms: _345  and  _346
REMARK  149  A    between atoms: _345  and  _348
REMARK  150  A    between atoms: _348  and  _349
REMARK  151  A    between atoms: _352  and  _354
REMARK  152  A    between atoms: _354  and  _355
REMARK  153  A    between atoms: _357  and  _359
REMARK  154  A    between atoms: _359  and  _360
REMARK  155  A    between atoms: _359  and  _362
REMARK  156  A    between atoms: _362  and  _363
REMARK  157  A    between atoms: _363  and  _364
REMARK  158  A    between atoms: _364  and  _365
REMARK  159  A    between atoms: _374  and  _376
REMARK  160  A    between atoms: _376  and  _377
REMARK  161  A    between atoms: _376  and  _379
REMARK  162  A    between atoms: _379  and  _380
REMARK  163  A    between atoms: _380  and  _381
REMARK  164  A    between atoms: _386  and  _388
REMARK  165  A    between atoms: _388  and  _389
REMARK  166  A    between atoms: _388  and  _391
REMARK  167  A    between atoms: _391  and  _392
REMARK  168  A    between atoms: _392  and  _393
REMARK  169  A    between atoms: _398  and  _400
REMARK  170  A    between atoms: _400  and  _401
REMARK  171  A    between atoms: _400  and  _403
REMARK  172  A    between atoms: _403  and  _404
REMARK  173  A    between atoms: _407  and  _409
REMARK  174  A    between atoms: _409  and  _410
REMARK  175  A    between atoms: _409  and  _412
REMARK  176  A    between atoms: _415  and  _417
REMARK  177  A    between atoms: _417  and  _418
REMARK  178  A    between atoms: _417  and  _420
REMARK  179  A    between atoms: _420  and  _421
REMARK  180  A    between atoms: _424  and  _426
REMARK  181  A    between atoms: _426  and  _427
REMARK  182  A    between atoms: _426  and  _429
REMARK  183  A    between atoms: _432  and  _434
REMARK  184  A    between atoms: _434  and  _435
REMARK  185  A    between atoms: _434  and  _437
REMARK  186  A    between atoms: _437  and  _438
REMARK  187  A    between atoms: _438  and  _439
REMARK  188  A    between atoms: _439  and  _440
REMARK  189  A    between atoms: _449  and  _451
REMARK  190  A    between atoms: _451  and  _452
REMARK  191  A    between atoms: _451  and  _454
REMARK  192  A    between atoms: _454  and  _455
REMARK  193  A    between atoms: _455  and  _456
REMARK  194  A    between atoms: _458  and  _460
REMARK  195  A    between atoms: _460  and  _461
REMARK  196  A    between atoms: _460  and  _463
REMARK  197  A    between atoms: _463  and  _464
REMARK  198  A    between atoms: _464  and  _465
REMARK  199  A    between atoms: _465  and  _466
REMARK  200  A    between atoms: _466  and  _467
REMARK  201  A    between atoms: _471  and  _473
REMARK  202  A    between atoms: _473  and  _474
REMARK  203  A    between atoms: _473  and  _476
REMARK  204  A    between atoms: _476  and  _477
REMARK  205  A    between atoms: _480  and  _482
REMARK  206  A    between atoms: _482  and  _483
REMARK  207  A    between atoms: _482  and  _485
REMARK  208  A    between atoms: _485  and  _486
REMARK  209  A    between atoms: _489  and  _491
REMARK  210  A    between atoms: _491  and  _492
REMARK  211  A    between atoms: _491  and  _494
REMARK  212  A    between atoms: _497  and  _499
REMARK  213  A    between atoms: _499  and  _500
REMARK  214  A    between atoms: _499  and  _502
REMARK  215  A    between atoms: _502  and  _503
REMARK  216  A    between atoms: _506  and  _508
REMARK  217  A    between atoms: _508  and  _509
REMARK  218  A    between atoms: _508  and  _511
REMARK  219  A    between atoms: _514  and  _516
REMARK  220  A    between atoms: _516  and  _517
REMARK  221  A    between atoms: _520  and  _522
REMARK  222  A    between atoms: _522  and  _523
REMARK  223  A    between atoms: _522  and  _525
REMARK  224  A    between atoms: _525  and  _526
REMARK  225  A    between atoms: _529  and  _531
REMARK  226  A    between atoms: _531  and  _532
REMARK  227  A    between atoms: _531  and  _534
REMARK  228  A    between atoms: _534  and  _535
REMARK  229  A    between atoms: _535  and  _536
REMARK  230  A    between atoms: _536  and  _537
REMARK  231  A    between atoms: _546  and  _548
REMARK  232  A    between atoms: _548  and  _549
REMARK  233  A    between atoms: _548  and  _551
REMARK  234  A    between atoms: _551  and  _552
REMARK  235  A    between atoms: _557  and  _559
REMARK  236  A    between atoms: _559  and  _560
REMARK  237  A    between atoms: _559  and  _562
REMARK  238  A    between atoms: _562  and  _563
REMARK  239  A    between atoms: _568  and  _569
REMARK                            x       y       z     vdW  Elec       q    Type
REMARK                         _______ _______ _______ _____ _____    ______ ____
ROOT
ATOM      1  CB  PHE A   1      26.374  38.618   7.812  0.00  0.00    +0.051 C 
ENDROOT
BRANCH   1   2
ATOM      2  CG  PHE A   1      25.485  37.411   7.761  0.00  0.00    -0.020 A 
ATOM      3  CD2 PHE A   1      24.869  36.939   8.907  0.00  0.00    -0.004 A 
ATOM      4  CE2 PHE A   1      24.058  35.816   8.870  0.00  0.00    -0.000 A 
ATOM      5  CZ  PHE A   1      23.862  35.161   7.693  0.00  0.00    -0.000 A 
ATOM      6  CE1 PHE A   1      24.493  35.613   6.545  0.00  0.00    -0.000 A 
ATOM      7  CD1 PHE A   1      25.302  36.723   6.586  0.00  0.00    -0.004 A 
ENDBRANCH   1   2
BRANCH   1   8
ATOM      8  CA  PHE A   1      25.673  39.927   7.470  0.00  0.00    +0.137 C 
BRANCH   8   9
ATOM      9  N   PHE A   1      25.076  39.877   6.152  0.00  0.00    -0.239 NA
ATOM     10  H   PHE A   1      25.660  39.608   5.335  0.00  0.00    +0.142 HD
ENDBRANCH   8   9
BRANCH   8  11
ATOM     11  C   PHE A   1      26.690  41.063   7.515  0.00  0.00    +0.224 C 
ATOM     12  O   PHE A   1      27.339  41.347   6.520  0.00  0.00    -0.287 OA
ENDBRANCH   8  11
ENDBRANCH   1   8
TORSDOF 4
REMARK  Name = ../refined-set-2016/1vyg/1vyg_pocket.pdb
REMARK  239 active torsions:
REMARK  status: ('A' for Active; 'I' for Inactive)
REMARK    1  A    between atoms: _1  and  _3
REMARK    2  A    between atoms: _3  and  _4
REMARK    3  A    between atoms: _3  and  _6
REMARK    4  A    between atoms: _6  and  _7
REMARK    5  A    between atoms: _10  and  _12
REMARK    6  A    between atoms: _12  and  _13
REMARK    7  A    between atoms: _12  and  _15
REMARK    8  A    between atoms: _15  and  _16
REMARK    9  A    between atoms: _16  and  _17
REMARK   10  A    between atoms: _20  and  _22
REMARK   11  A    between atoms: _22  and  _23
REMARK   12  A    between atoms: _22  and  _25
REMARK   13  A    between atoms: _25  and  _26
REMARK   14  A    between atoms: _28  and  _30
REMARK   15  A    between atoms: _30  and  _31
REMARK   16  A    between atoms: _30  and  _33
REMARK   17  A    between atoms: _33  and  _34
REMARK   18  A    between atoms: _40  and  _42
REMARK   19  A    between atoms: _42  and  _43
REMARK   20  A    between atoms: _42  and  _45
REMARK   21  A    between atoms: _48  and  _50
REMARK   22  A    between atoms: _50  and  _51
REMARK   23  A    between atoms: _50  and  _53
REMARK   24  A    between atoms: _53  and  _54
REMARK   25  A    between atoms: _54  and  _55
REMARK   26  A    between atoms: _57  and  _59
REMARK   27  A    between atoms: _59  and  _60
REMARK   28  A    between atoms: _59  and  _62
REMARK   29  A    between atoms: _62  and  _63
REMARK   30  A    between atoms: _65  and  _67
REMARK   31  A    between atoms: _67  and  _68
REMARK   32  A    between atoms: _67  and  _70
REMARK   33  A    between atoms: _70  and  _71
REMARK   34  A    between atoms: _74  and  _76
REMARK   35  A    between atoms: _76  and  _77
REMARK   36  A    between atoms: _79  and  _81
REMARK   37  A    between atoms: _81  and  _82
REMARK   38  A    between atoms: _81  and  _84
REMARK   39  A    between atoms: _87  and  _89
REMARK   40  A    between atoms: _89  and  _90
REMARK   41  A    between atoms: _89  and  _92
REMARK   42  A    between atoms: _92  and  _93
REMARK   43  A    between atoms: _95  and  _97
REMARK   44  A    between atoms: _97  and  _98
REMARK   45  A    between atoms: _101  and  _103
REMARK   46  A    between atoms: _103  and  _104
REMARK   47  A    between atoms: _103  and  _106
REMARK   48  A    between atoms: _106  and  _107
REMARK   49  A    between atoms: _110  and  _112
REMARK   50  A    between atoms: _112  and  _113
REMARK   51  A    between atoms: _112  and  _115
REMARK   52  A    between atoms: _115  and  _116
REMARK   53  A    between atoms: _116  and  _117
REMARK   54  A    between atoms: _117  and  _118
REMARK   55  A    between atoms: _127  and  _129
REMARK   56  A    between atoms: _129  and  _130
REMARK   57  A    between atoms: _129  and  _132
REMARK   58  A    between atoms: _132  and  _133
REMARK   59  A    between atoms: _133  and  _134
REMARK   60  A    between atoms: _139  and  _141
REMARK   61  A    between atoms: _141  and  _142
REMARK   62  A    between atoms: _141  and  _144
REMARK   63  A    between atoms: _144  and  _145
REMARK   64  A    between atoms: _148  and  _150
REMARK   65  A    between atoms: _150  and  _151
REMARK   66  A    between atoms: _153  and  _155
REMARK   67  A    between atoms: _155  and  _156
REMARK   68  A    between atoms: _155  and  _158
REMARK   69  A    between atoms: _158  and  _159
REMARK   70  A    between atoms: _164  and  _166
REMARK   71  A    between atoms: _166  and  _167
REMARK   72  A    between atoms: _166  and  _169
REMARK   73  A    between atoms: _169  and  _170
REMARK   74  A    between atoms: _173  and  _175
REMARK   75  A    between atoms: _175  and  _176
REMARK   76  A    between atoms: _175  and  _178
REMARK   77  A    between atoms: _181  and  _183
REMARK   78  A    between atoms: _183  and  _184
REMARK   79  A    between atoms: _183  and  _186
REMARK   80  A    between atoms: _186  and  _187
REMARK   81  A    between atoms: _191  and  _192
REMARK   82  A    between atoms: _197  and  _199
REMARK   83  A    between atoms: _199  and  _200
REMARK   84  A    between atoms: _199  and  _202
REMARK   85  A    between atoms: _202  and  _203
REMARK   86  A    between atoms: _206  and  _208
REMARK   87  A    between atoms: _208  and  _209
REMARK   88  A    between atoms: _208  and  _211
REMARK   89  A    between atoms: _214  and  _216
REMARK   90  A    between atoms: _216  and  _217
REMARK   91  A    between atoms: _216  and  _219
REMARK   92  A    between atoms: _219  and  _220
REMARK   93  A    between atoms: _226  and  _228
REMARK   94  A    between atoms: _228  and  _229
REMARK   95  A    between atoms: _228  and  _231
REMARK   96  A    between atoms: _231  and  _232
REMARK   97  A    between atoms: _232  and  _233
REMARK   98  A    between atoms: _235  and  _237
REMARK   99  A    between atoms: _237  and  _238
REMARK  100  A    between atoms: _237  and  _240
REMARK  101  A    between atoms: _240  and  _241
REMARK  102  A    between atoms: _244  and  _246
REMARK  103  A    between atoms: _246  and  _247
REMARK  104  A    between atoms: _246  and  _249
REMARK  105  A    between atoms: _249  and  _250
REMARK  106  A    between atoms: _250  and  _251
REMARK  107  A    between atoms: _254  and  _256
REMARK  108  A    between atoms: _256  and  _257
REMARK  109  A    between atoms: _256  and  _259
REMARK  110  A    between atoms: _259  and  _260
REMARK  111  A    between atoms: _262  and  _264
REMARK  112  A    between atoms: _264  and  _265
REMARK  113  A    between atoms: _264  and  _267
REMARK  114  A    between atoms: _267  and  _268
REMARK  115  A    between atoms: _271  and  _273
REMARK  116  A    between atoms: _273  and  _274
REMARK  117  A    between atoms: _273  and  _276
REMARK  118  A    between atoms: _276  and  _277
REMARK  119  A    between atoms: _283  and  _285
REMARK  120  A    between atoms: _285  and  _286
REMARK  121  A    between atoms: _285  and  _288
REMARK  122  A    between atoms: _288  and  _289
REMARK  123  A    between atoms: _289  and  _290
REMARK  124  A    between atoms: _290  and  _291
REMARK  125  A    between atoms: _291  and  _292
REMARK  126  A    between atoms: _296  and  _298
REMARK  127  A    between atoms: _298  and  _299
REMARK  128  A    between atoms: _298  and  _301
REMARK  129  A    between atoms: _301  and  _302
REMARK  130  A    between atoms: _307  and  _309
REMARK  131  A    between atoms: _309  and  _310
REMARK  132  A    between atoms: _309  and  _312
REMARK  133  A    between atoms: _312  and  _313
REMARK  134  A    between atoms: _316  and  _318
REMARK  135  A    between atoms: _318  and  _319
REMARK  136  A    between atoms: _318  and  _321
REMARK  137  A    between atoms: _321  and  _322
REMARK  138  A    between atoms: _322  and  _323
REMARK  139  A    between atoms: _326  and  _328
REMARK  140  A    between atoms: _328  and  _329
REMARK  141  A    between atoms: _328  and  _331
REMARK  142  A    between atoms: _331  and  _332
REMARK  143  A    between atoms: _335  and  _337
REMARK  144  A    between atoms: _337  and  _338
REMARK  145  A    between atoms: _337  and  _340
REMARK  146  A    between atoms: _340  and  _341
REMARK  147  A    between atoms: _343  and  _345
REMARK  148  A    between atoms: _345  and  _346
REMARK  149  A    between atoms: _345  and  _348
REMARK  150  A    between atoms: _348  and  _349
REMARK  151  A    between atoms: _352  and  _354
REMARK  152  A    between atoms: _354  and  _355
REMARK  153  A    between atoms: _357  and  _359
REMARK  154  A    between atoms: _359  and  _360
REMARK  155  A    between atoms: _359  and  _362
REMARK  156  A    between atoms: _362  and  _363
REMARK  157  A    between atoms: _363  and  _364
REMARK  158  A    between atoms: _364  and  _365
REMARK  159  A    between atoms: _374  and  _376
REMARK  160  A    between atoms: _376  and  _377
REMARK  161  A    between atoms: _376  and  _379
REMARK  162  A    between atoms: _379  and  _380
REMARK  163  A    between atoms: _380  and  _381
REMARK  164  A    between atoms: _386  and  _388
REMARK  165  A    between atoms: _388  and  _389
REMARK  166  A    between atoms: _388  and  _391
REMARK  167  A    between atoms: _391  and  _392
REMARK  168  A    between atoms: _392  and  _393
REMARK  169  A    between atoms: _398  and  _400
REMARK  170  A    between atoms: _400  and  _401
REMARK  171  A    between atoms: _400  and  _403
REMARK  172  A    between atoms: _403  and  _404
REMARK  173  A    between atoms: _407  and  _409
REMARK  174  A    between atoms: _409  and  _410
REMARK  175  A    between atoms: _409  and  _412
REMARK  176  A    between atoms: _415  and  _417
REMARK  177  A    between atoms: _417  and  _418
REMARK  178  A    between atoms: _417  and  _420
REMARK  179  A    between atoms: _420  and  _421
REMARK  180  A    between atoms: _424  and  _426
REMARK  181  A    between atoms: _426  and  _427
REMARK  182  A    between atoms: _426  and  _429
REMARK  183  A    between atoms: _432  and  _434
REMARK  184  A    between atoms: _434  and  _435
REMARK  185  A    between atoms: _434  and  _437
REMARK  186  A    between atoms: _437  and  _438
REMARK  187  A    between atoms: _438  and  _439
REMARK  188  A    between atoms: _439  and  _440
REMARK  189  A    between atoms: _449  and  _451
REMARK  190  A    between atoms: _451  and  _452
REMARK  191  A    between atoms: _451  and  _454
REMARK  192  A    between atoms: _454  and  _455
REMARK  193  A    between atoms: _455  and  _456
REMARK  194  A    between atoms: _458  and  _460
REMARK  195  A    between atoms: _460  and  _461
REMARK  196  A    between atoms: _460  and  _463
REMARK  197  A    between atoms: _463  and  _464
REMARK  198  A    between atoms: _464  and  _465
REMARK  199  A    between atoms: _465  and  _466
REMARK  200  A    between atoms: _466  and  _467
REMARK  201  A    between atoms: _471  and  _473
REMARK  202  A    between atoms: _473  and  _474
REMARK  203  A    between atoms: _473  and  _476
REMARK  204  A    between atoms: _476  and  _477
REMARK  205  A    between atoms: _480  and  _482
REMARK  206  A    between atoms: _482  and  _483
REMARK  207  A    between atoms: _482  and  _485
REMARK  208  A    between atoms: _485  and  _486
REMARK  209  A    between atoms: _489  and  _491
REMARK  210  A    between atoms: _491  and  _492
REMARK  211  A    between atoms: _491  and  _494
REMARK  212  A    between atoms: _497  and  _499
REMARK  213  A    between atoms: _499  and  _500
REMARK  214  A    between atoms: _499  and  _502
REMARK  215  A    between atoms: _502  and  _503
REMARK  216  A    between atoms: _506  and  _508
REMARK  217  A    between atoms: _508  and  _509
REMARK  218  A    between atoms: _508  and  _511
REMARK  219  A    between atoms: _514  and  _516
REMARK  220  A    between atoms: _516  and  _517
REMARK  221  A    between atoms: _520  and  _522
REMARK  222  A    between atoms: _522  and  _523
REMARK  223  A    between atoms: _522  and  _525
REMARK  224  A    between atoms: _525  and  _526
REMARK  225  A    between atoms: _529  and  _531
REMARK  226  A    between atoms: _531  and  _532
REMARK  227  A    between atoms: _531  and  _534
REMARK  228  A    between atoms: _534  and  _535
REMARK  229  A    between atoms: _535  and  _536
REMARK  230  A    between atoms: _536  and  _537
REMARK  231  A    between atoms: _546  and  _548
REMARK  232  A    between atoms: _548  and  _549
REMARK  233  A    between atoms: _548  and  _551
REMARK  234  A    between atoms: _551  and  _552
REMARK  235  A    between atoms: _557  and  _559
REMARK  236  A    between atoms: _559  and  _560
REMARK  237  A    between atoms: _559  and  _562
REMARK  238  A    between atoms: _562  and  _563
REMARK  239  A    between atoms: _568  and  _569
REMARK                            x       y       z     vdW  Elec       q    Type
REMARK                         _______ _______ _______ _____ _____    ______ ____
ROOT
ATOM      1  CA  MET A   1      21.799  39.705   9.878  0.00  0.00    +0.134 C 
ENDROOT
BRANCH   1   2
ATOM      2  N   MET A   1      22.269  40.458  11.018  0.00  0.00    -0.239 NA
ATOM      3  H   MET A   1      21.654  40.531  11.853  0.00  0.00    +0.142 HD
ENDBRANCH   1   2
BRANCH   1   4
ATOM      4  C   MET A   1      20.524  40.359   9.372  0.00  0.00    +0.224 C 
ATOM      5  O   MET A   1      19.501  40.341  10.050  0.00  0.00    -0.287 OA
ENDBRANCH   1   4
BRANCH   1   6
ATOM      6  CB  MET A   1      21.515  38.250  10.266  0.00  0.00    +0.037 C 
BRANCH   6   7
ATOM      7  CG  MET A   1      21.042  37.420   9.076  0.00  0.00    +0.059 C 
BRANCH   7   8
ATOM      8  SD  MET A   1      20.489  35.755   9.452  0.00  0.00    -0.139 S 
ATOM      9  CE  MET A   1      18.917  35.788   8.688  0.00  0.00    +0.069 C 
ENDBRANCH   7   8
ENDBRANCH   6   7
ENDBRANCH   1   6
TORSDOF 5
REMARK  Name = ../refined-set-2016/1vyg/1vyg_pocket.pdb
REMARK  239 active torsions:
REMARK  status: ('A' for Active; 'I' for Inactive)
REMARK    1  A    between atoms: _1  and  _3
REMARK    2  A    between atoms: _3  and  _4
REMARK    3  A    between atoms: _3  and  _6
REMARK    4  A    between atoms: _6  and  _7
REMARK    5  A    between atoms: _10  and  _12
REMARK    6  A    between atoms: _12  and  _13
REMARK    7  A    between atoms: _12  and  _15
REMARK    8  A    between atoms: _15  and  _16
REMARK    9  A    between atoms: _16  and  _17
REMARK   10  A    between atoms: _20  and  _22
REMARK   11  A    between atoms: _22  and  _23
REMARK   12  A    between atoms: _22  and  _25
REMARK   13  A    between atoms: _25  and  _26
REMARK   14  A    between atoms: _28  and  _30
REMARK   15  A    between atoms: _30  and  _31
REMARK   16  A    between atoms: _30  and  _33
REMARK   17  A    between atoms: _33  and  _34
REMARK   18  A    between atoms: _40  and  _42
REMARK   19  A    between atoms: _42  and  _43
REMARK   20  A    between atoms: _42  and  _45
REMARK   21  A    between atoms: _48  and  _50
REMARK   22  A    between atoms: _50  and  _51
REMARK   23  A    between atoms: _50  and  _53
REMARK   24  A    between atoms: _53  and  _54
REMARK   25  A    between atoms: _54  and  _55
REMARK   26  A    between atoms: _57  and  _59
REMARK   27  A    between atoms: _59  and  _60
REMARK   28  A    between atoms: _59  and  _62
REMARK   29  A    between atoms: _62  and  _63
REMARK   30  A    between atoms: _65  and  _67
REMARK   31  A    between atoms: _67  and  _68
REMARK   32  A    between atoms: _67  and  _70
REMARK   33  A    between atoms: _70  and  _71
REMARK   34  A    between atoms: _74  and  _76
REMARK   35  A    between atoms: _76  and  _77
REMARK   36  A    between atoms: _79  and  _81
REMARK   37  A    between atoms: _81  and  _82
REMARK   38  A    between atoms: _81  and  _84
REMARK   39  A    between atoms: _87  and  _89
REMARK   40  A    between atoms: _89  and  _90
REMARK   41  A    between atoms: _89  and  _92
REMARK   42  A    between atoms: _92  and  _93
REMARK   43  A    between atoms: _95  and  _97
REMARK   44  A    between atoms: _97  and  _98
REMARK   45  A    between atoms: _101  and  _103
REMARK   46  A    between atoms: _103  and  _104
REMARK   47  A    between atoms: _103  and  _106
REMARK   48  A    between atoms: _106  and  _107
REMARK   49  A    between atoms: _110  and  _112
REMARK   50  A    between atoms: _112  and  _113
REMARK   51  A    between atoms: _112  and  _115
REMARK   52  A    between atoms: _115  and  _116
REMARK   53  A    between atoms: _116  and  _117
REMARK   54  A    between atoms: _117  and  _118
REMARK   55  A    between atoms: _127  and  _129
REMARK   56  A    between atoms: _129  and  _130
REMARK   57  A    between atoms: _129  and  _132
REMARK   58  A    between atoms: _132  and  _133
REMARK   59  A    between atoms: _133  and  _134
REMARK   60  A    between atoms: _139  and  _141
REMARK   61  A    between atoms: _141  and  _142
REMARK   62  A    between atoms: _141  and  _144
REMARK   63  A    between atoms: _144  and  _145
REMARK   64  A    between atoms: _148  and  _150
REMARK   65  A    between atoms: _150  and  _151
REMARK   66  A    between atoms: _153  and  _155
REMARK   67  A    between atoms: _155  and  _156
REMARK   68  A    between atoms: _155  and  _158
REMARK   69  A    between atoms: _158  and  _159
REMARK   70  A    between atoms: _164  and  _166
REMARK   71  A    between atoms: _166  and  _167
REMARK   72  A    between atoms: _166  and  _169
REMARK   73  A    between atoms: _169  and  _170
REMARK   74  A    between atoms: _173  and  _175
REMARK   75  A    between atoms: _175  and  _176
REMARK   76  A    between atoms: _175  and  _178
REMARK   77  A    between atoms: _181  and  _183
REMARK   78  A    between atoms: _183  and  _184
REMARK   79  A    between atoms: _183  and  _186
REMARK   80  A    between atoms: _186  and  _187
REMARK   81  A    between atoms: _191  and  _192
REMARK   82  A    between atoms: _197  and  _199
REMARK   83  A    between atoms: _199  and  _200
REMARK   84  A    between atoms: _199  and  _202
REMARK   85  A    between atoms: _202  and  _203
REMARK   86  A    between atoms: _206  and  _208
REMARK   87  A    between atoms: _208  and  _209
REMARK   88  A    between atoms: _208  and  _211
REMARK   89  A    between atoms: _214  and  _216
REMARK   90  A    between atoms: _216  and  _217
REMARK   91  A    between atoms: _216  and  _219
REMARK   92  A    between atoms: _219  and  _220
REMARK   93  A    between atoms: _226  and  _228
REMARK   94  A    between atoms: _228  and  _229
REMARK   95  A    between atoms: _228  and  _231
REMARK   96  A    between atoms: _231  and  _232
REMARK   97  A    between atoms: _232  and  _233
REMARK   98  A    between atoms: _235  and  _237
REMARK   99  A    between atoms: _237  and  _238
REMARK  100  A    between atoms: _237  and  _240
REMARK  101  A    between atoms: _240  and  _241
REMARK  102  A    between atoms: _244  and  _246
REMARK  103  A    between atoms: _246  and  _247
REMARK  104  A    between atoms: _246  and  _249
REMARK  105  A    between atoms: _249  and  _250
REMARK  106  A    between atoms: _250  and  _251
REMARK  107  A    between atoms: _254  and  _256
REMARK  108  A    between atoms: _256  and  _257
REMARK  109  A    between atoms: _256  and  _259
REMARK  110  A    between atoms: _259  and  _260
REMARK  111  A    between atoms: _262  and  _264
REMARK  112  A    between atoms: _264  and  _265
REMARK  113  A    between atoms: _264  and  _267
REMARK  114  A    between atoms: _267  and  _268
REMARK  115  A    between atoms: _271  and  _273
REMARK  116  A    between atoms: _273  and  _274
REMARK  117  A    between atoms: _273  and  _276
REMARK  118  A    between atoms: _276  and  _277
REMARK  119  A    between atoms: _283  and  _285
REMARK  120  A    between atoms: _285  and  _286
REMARK  121  A    between atoms: _285  and  _288
REMARK  122  A    between atoms: _288  and  _289
REMARK  123  A    between atoms: _289  and  _290
REMARK  124  A    between atoms: _290  and  _291
REMARK  125  A    between atoms: _291  and  _292
REMARK  126  A    between atoms: _296  and  _298
REMARK  127  A    between atoms: _298  and  _299
REMARK  128  A    between atoms: _298  and  _301
REMARK  129  A    between atoms: _301  and  _302
REMARK  130  A    between atoms: _307  and  _309
REMARK  131  A    between atoms: _309  and  _310
REMARK  132  A    between atoms: _309  and  _312
REMARK  133  A    between atoms: _312  and  _313
REMARK  134  A    between atoms: _316  and  _318
REMARK  135  A    between atoms: _318  and  _319
REMARK  136  A    between atoms: _318  and  _321
REMARK  137  A    between atoms: _321  and  _322
REMARK  138  A    between atoms: _322  and  _323
REMARK  139  A    between atoms: _326  and  _328
REMARK  140  A    between atoms: _328  and  _329
REMARK  141  A    between atoms: _328  and  _331
REMARK  142  A    between atoms: _331  and  _332
REMARK  143  A    between atoms: _335  and  _337
REMARK  144  A    between atoms: _337  and  _338
REMARK  145  A    between atoms: _337  and  _340
REMARK  146  A    between atoms: _340  and  _341
REMARK  147  A    between atoms: _343  and  _345
REMARK  148  A    between atoms: _345  and  _346
REMARK  149  A    between atoms: _345  and  _348
REMARK  150  A    between atoms: _348  and  _349
REMARK  151  A    between atoms: _352  and  _354
REMARK  152  A    between atoms: _354  and  _355
REMARK  153  A    between atoms: _357  and  _359
REMARK  154  A    between atoms: _359  and  _360
REMARK  155  A    between atoms: _359  and  _362
REMARK  156  A    between atoms: _362  and  _363
REMARK  157  A    between atoms: _363  and  _364
REMARK  158  A    between atoms: _364  and  _365
REMARK  159  A    between atoms: _374  and  _376
REMARK  160  A    between atoms: _376  and  _377
REMARK  161  A    between atoms: _376  and  _379
REMARK  162  A    between atoms: _379  and  _380
REMARK  163  A    between atoms: _380  and  _381
REMARK  164  A    between atoms: _386  and  _388
REMARK  165  A    between atoms: _388  and  _389
REMARK  166  A    between atoms: _388  and  _391
REMARK  167  A    between atoms: _391  and  _392
REMARK  168  A    between atoms: _392  and  _393
REMARK  169  A    between atoms: _398  and  _400
REMARK  170  A    between atoms: _400  and  _401
REMARK  171  A    between atoms: _400  and  _403
REMARK  172  A    between atoms: _403  and  _404
REMARK  173  A    between atoms: _407  and  _409
REMARK  174  A    between atoms: _409  and  _410
REMARK  175  A    between atoms: _409  and  _412
REMARK  176  A    between atoms: _415  and  _417
REMARK  177  A    between atoms: _417  and  _418
REMARK  178  A    between atoms: _417  and  _420
REMARK  179  A    between atoms: _420  and  _421
REMARK  180  A    between atoms: _424  and  _426
REMARK  181  A    between atoms: _426  and  _427
REMARK  182  A    between atoms: _426  and  _429
REMARK  183  A    between atoms: _432  and  _434
REMARK  184  A    between atoms: _434  and  _435
REMARK  185  A    between atoms: _434  and  _437
REMARK  186  A    between atoms: _437  and  _438
REMARK  187  A    between atoms: _438  and  _439
REMARK  188  A    between atoms: _439  and  _440
REMARK  189  A    between atoms: _449  and  _451
REMARK  190  A    between atoms: _451  and  _452
REMARK  191  A    between atoms: _451  and  _454
REMARK  192  A    between atoms: _454  and  _455
REMARK  193  A    between atoms: _455  and  _456
REMARK  194  A    between atoms: _458  and  _460
REMARK  195  A    between atoms: _460  and  _461
REMARK  196  A    between atoms: _460  and  _463
REMARK  197  A    between atoms: _463  and  _464
REMARK  198  A    between atoms: _464  and  _465
REMARK  199  A    between atoms: _465  and  _466
REMARK  200  A    between atoms: _466  and  _467
REMARK  201  A    between atoms: _471  and  _473
REMARK  202  A    between atoms: _473  and  _474
REMARK  203  A    between atoms: _473  and  _476
REMARK  204  A    between atoms: _476  and  _477
REMARK  205  A    between atoms: _480  and  _482
REMARK  206  A    between atoms: _482  and  _483
REMARK  207  A    between atoms: _482  and  _485
REMARK  208  A    between atoms: _485  and  _486
REMARK  209  A    between atoms: _489  and  _491
REMARK  210  A    between atoms: _491  and  _492
REMARK  211  A    between atoms: _491  and  _494
REMARK  212  A    between atoms: _497  and  _499
REMARK  213  A    between atoms: _499  and  _500
REMARK  214  A    between atoms: _499  and  _502
REMARK  215  A    between atoms: _502  and  _503
REMARK  216  A    between atoms: _506  and  _508
REMARK  217  A    between atoms: _508  and  _509
REMARK  218  A    between atoms: _508  and  _511
REMARK  219  A    between atoms: _514  and  _516
REMARK  220  A    between atoms: _516  and  _517
REMARK  221  A    between atoms: _520  and  _522
REMARK  222  A    between atoms: _522  and  _523
REMARK  223  A    between atoms: _522  and  _525
REMARK  224  A    between atoms: _525  and  _526
REMARK  225  A    between atoms: _529  and  _531
REMARK  226  A    between atoms: _531  and  _532
REMARK  227  A    between atoms: _531  and  _534
REMARK  228  A    between atoms: _534  and  _535
REMARK  229  A    between atoms: _535  and  _536
REMARK  230  A    between atoms: _536  and  _537
REMARK  231  A    between atoms: _546  and  _548
REMARK  232  A    between atoms: _548  and  _549
REMARK  233  A    between atoms: _548  and  _551
REMARK  234  A    between atoms: _551  and  _552
REMARK  235  A    between atoms: _557  and  _559
REMARK  236  A    between atoms: _559  and  _560
REMARK  237  A    between atoms: _559  and  _562
REMARK  238  A    between atoms: _562  and  _563
REMARK  239  A    between atoms: _568  and  _569
REMARK                            x       y       z     vdW  Elec       q    Type
REMARK                         _______ _______ _______ _____ _____    ______ ____
ROOT
ATOM      1  CA  PHE A   5       7.379  39.802   2.027  0.00  0.00    +0.153 C 
ENDROOT
BRANCH   1   2
ATOM      2  C   PHE A   5       7.669  40.819   3.130  0.00  0.00    +0.241 C 
ATOM      3  N   LYS A   6       8.806  40.640   3.798  0.00  0.00    -0.297 N 
ATOM      4  H   LYS A   6       9.376  39.798   3.579  0.00  0.00    +0.150 HD
ATOM      5  O   PHE A   5       6.878  41.740   3.361  0.00  0.00    -0.273 OA
BRANCH   3   6
ATOM      6  CA  LYS A   6       9.297  41.556   4.818  0.00  0.00    +0.149 C 
BRANCH   6   7
ATOM      7  C   LYS A   6      10.791  41.768   4.661  0.00  0.00    +0.241 C 
ATOM      8  N   ASN A   7      11.250  42.912   5.139  0.00  0.00    -0.297 N 
ATOM      9  H   ASN A   7      10.579  43.683   5.331  0.00  0.00    +0.150 HD
ATOM     10  O   LYS A   6      11.506  40.916   4.117  0.00  0.00    -0.273 OA
BRANCH   8  11
ATOM     11  CA  ASN A   7      12.662  43.126   5.405  0.00  0.00    +0.158 C 
BRANCH  11  12
ATOM     12  C   ASN A   7      12.841  43.187   6.898  0.00  0.00    +0.241 C 
ATOM     13  N   LEU A   8      13.228  42.084   7.525  0.00  0.00    -0.298 N 
ATOM     14  H   LEU A   8      13.290  41.189   6.998  0.00  0.00    +0.150 HD
ATOM     15  O   ASN A   7      12.594  44.209   7.480  0.00  0.00    -0.273 OA
BRANCH  13  16
ATOM     16  CA  LEU A   8      13.567  42.109   8.941  0.00  0.00    +0.137 C 
BRANCH  16  17
ATOM     17  C   LEU A   8      15.069  42.166   9.110  0.00  0.00    +0.227 C 
ATOM     18  O   LEU A   8      15.828  41.812   8.224  0.00  0.00    -0.286 OA
ENDBRANCH  16  17
BRANCH  16  19
ATOM     19  CB  LEU A   8      13.059  40.869   9.673  0.00  0.00    +0.028 C 
BRANCH  19  20
ATOM     20  CG  LEU A   8      11.624  40.418   9.382  0.00  0.00    +0.002 C 
ATOM     21  CD2 LEU A   8      10.677  40.658  10.578  0.00  0.00    +0.000 C 
ATOM     22  CD1 LEU A   8      11.602  38.951   8.950  0.00  0.00    +0.000 C 
ENDBRANCH  19  20
ENDBRANCH  16  19
ENDBRANCH  13  16
ENDBRANCH  11  12
BRANCH  11  23
ATOM     23  CB  ASN A   7      13.173  44.425   4.776  0.00  0.00    +0.114 C 
BRANCH  23  24
ATOM     24  CG  ASN A   7      12.918  44.491   3.303  0.00  0.00    +0.222 C 
ATOM     25  OD1 ASN A   7      12.337  45.444   2.818  0.00  0.00    -0.275 OA
ATOM     26  ND2 ASN A   7      13.339  43.471   2.577  0.00  0.00    -0.329 N 
ATOM     27 HD21 ASN A   7      13.832  42.677   3.033  0.00  0.00    +0.145 HD
ATOM     28 HD22 ASN A   7      13.178  43.462   1.550  0.00  0.00    +0.145 HD
ENDBRANCH  23  24
ENDBRANCH  11  23
ENDBRANCH   8  11
ENDBRANCH   6   7
BRANCH   6  29
ATOM     29  CB  LYS A   6       9.045  40.978   6.200  0.00  0.00    +0.029 C 
BRANCH  29  30
ATOM     30  CG  LYS A   6       7.592  40.704   6.475  0.00  0.00    +0.000 C 
BRANCH  30  31
ATOM     31  CD  LYS A   6       7.342  40.239   7.889  0.00  0.00    -0.024 C 
BRANCH  31  32
ATOM     32  CE  LYS A   6       5.840  40.178   8.151  0.00  0.00    -0.086 C 
BRANCH  32  33
ATOM     33  NZ  LYS A   6       5.487  39.424   9.395  0.00  0.00    +0.380 N 
ATOM     34  HZ1 LYS A   6       5.931  39.884  10.215  0.00  0.00    -0.089 HD
ATOM     35  HZ2 LYS A   6       4.454  39.420   9.515  0.00  0.00    -0.089 HD
ATOM     36  HZ3 LYS A   6       5.832  38.446   9.316  0.00  0.00    -0.089 HD
ENDBRANCH  32  33
ENDBRANCH  31  32
ENDBRANCH  30  31
ENDBRANCH  29  30
ENDBRANCH   6  29
ENDBRANCH   3   6
ENDBRANCH   1   2
BRANCH   1  38
ATOM     37  C   THR A   4       8.211  41.073   0.132  0.00  0.00    +0.243 C 
ATOM     38  N   PHE A   5       8.274  39.985   0.895  0.00  0.00    -0.297 N 
ATOM     39  H   PHE A   5       8.977  39.250   0.678  0.00  0.00    +0.150 HD
ATOM     40  O   THR A   4       7.433  41.986   0.357  0.00  0.00    -0.273 OA
BRANCH  37  41
ATOM     41  CA  THR A   4       9.189  41.167  -1.050  0.00  0.00    +0.176 C 
BRANCH  41  44
ATOM     42  C   SER A   3      11.243  40.800   0.183  0.00  0.00    +0.243 C 
ATOM     43  O   SER A   3      11.146  41.883   0.766  0.00  0.00    -0.273 OA
ATOM     44  N   THR A   4      10.401  40.411  -0.753  0.00  0.00    -0.295 N 
ATOM     45  H   THR A   4      10.605  39.545  -1.292  0.00  0.00    +0.150 HD
BRANCH  42  46
ATOM     46  CA  SER A   3      12.343  39.817   0.510  0.00  0.00    +0.178 C 
BRANCH  46  48
ATOM     47  C   GLU A   2      14.494  40.369   1.494  0.00  0.00    +0.241 C 
ATOM     48  N   SER A   3      13.172  40.397   1.553  0.00  0.00    -0.295 N 
ATOM     49  H   SER A   3      12.713  40.848   2.370  0.00  0.00    +0.150 HD
ATOM     50  O   GLU A   2      15.112  39.695   0.688  0.00  0.00    -0.273 OA
BRANCH  47  51
ATOM     51  CA  GLU A   2      15.220  41.246   2.485  0.00  0.00    +0.149 C 
BRANCH  51  54
ATOM     52  C   THR A   1      15.924  40.472   4.677  0.00  0.00    +0.241 C 
ATOM     53  O   THR A   1      15.090  41.158   5.266  0.00  0.00    -0.274 OA
ATOM     54  N   GLU A   2      16.061  40.457   3.354  0.00  0.00    -0.297 N 
ATOM     55  H   GLU A   2      16.798  39.857   2.932  0.00  0.00    +0.150 HD
BRANCH  52  56
ATOM     56  CA  THR A   1      16.877  39.608   5.462  0.00  0.00    +0.172 C 
BRANCH  56  57
ATOM     57  N   THR A   1      17.536  40.414   6.495  0.00  0.00    -0.236 NA
ATOM     58  H   THR A   1      16.955  40.850   7.240  0.00  0.00    +0.142 HD
ENDBRANCH  56  57
BRANCH  56  59
ATOM     59  CB  THR A   1      16.127  38.409   6.089  0.00  0.00    +0.135 C 
ATOM     60  CG2 THR A   1      15.444  37.523   5.000  0.00  0.00    +0.034 C 
BRANCH  59  61
ATOM     61  OG1 THR A   1      17.065  37.519   6.720  0.00  0.00    -0.383 OA
ATOM     62  HG1 THR A   1      16.577  36.755   7.118  0.00  0.00    +0.210 HD
ENDBRANCH  59  61
ENDBRANCH  56  59
ENDBRANCH  52  56
ENDBRANCH  51  54
BRANCH  51  63
ATOM     63  CB  GLU A   2      16.029  42.277   1.693  0.00  0.00    +0.041 C 
BRANCH  63  64
ATOM     64  CG  GLU A   2      16.690  43.358   2.523  0.00  0.00    +0.116 C 
BRANCH  64  65
ATOM     65  CD  GLU A   2      17.665  44.161   1.698  0.00  0.00    +0.365 C 
ATOM     66  OE2 GLU A   2      17.377  45.350   1.432  0.00  0.00    -0.246 OA
ATOM     67  OE1 GLU A   2      18.714  43.586   1.306  0.00  0.00    -0.246 OA
ENDBRANCH  64  65
ENDBRANCH  63  64
ENDBRANCH  51  63
ENDBRANCH  47  51
ENDBRANCH  46  48
BRANCH  46  68
ATOM     68  CB  SER A   3      11.747  38.481   0.969  0.00  0.00    +0.166 C 
BRANCH  68  69
ATOM     69  OG  SER A   3      11.088  38.617   2.219  0.00  0.00    -0.380 OA
ATOM     70  H   SER A   3      11.736  38.926   2.901  0.00  0.00    +0.211 HD
ENDBRANCH  68  69
ENDBRANCH  46  68
ENDBRANCH  42  46
ENDBRANCH  41  44
BRANCH  41  71
ATOM     71  CB  THR A   4       8.548  40.649  -2.358  0.00  0.00    +0.137 C 
ATOM     72  CG2 THR A   4       9.477  40.932  -3.567  0.00  0.00    +0.034 C 
BRANCH  71  73
ATOM     73  OG1 THR A   4       8.435  39.220  -2.316  0.00  0.00    -0.382 OA
ATOM     74  HG1 THR A   4       8.024  38.898  -3.157  0.00  0.00    +0.210 HD
ENDBRANCH  71  73
ENDBRANCH  41  71
ENDBRANCH  37  41
ENDBRANCH   1  38
BRANCH   1  75
ATOM     75  CB  PHE A   5       7.504  38.379   2.567  0.00  0.00    +0.055 C 
BRANCH  75  76
ATOM     76  CG  PHE A   5       6.588  38.081   3.713  0.00  0.00    -0.020 A 
ATOM     77  CD2 PHE A   5       7.065  37.442   4.839  0.00  0.00    -0.004 A 
ATOM     78  CE2 PHE A   5       6.239  37.159   5.886  0.00  0.00    -0.000 A 
ATOM     79  CZ  PHE A   5       4.904  37.489   5.813  0.00  0.00    -0.000 A 
ATOM     80  CE1 PHE A   5       4.403  38.118   4.688  0.00  0.00    -0.000 A 
ATOM     81  CD1 PHE A   5       5.240  38.419   3.651  0.00  0.00    -0.004 A 
ENDBRANCH  75  76
ENDBRANCH   1  75
TORSDOF 36
REMARK  Name = ../refined-set-2016/1vyg/1vyg_pocket.pdb
REMARK  239 active torsions:
REMARK  status: ('A' for Active; 'I' for Inactive)
REMARK    1  A    between atoms: _1  and  _3
REMARK    2  A    between atoms: _3  and  _4
REMARK    3  A    between atoms: _3  and  _6
REMARK    4  A    between atoms: _6  and  _7
REMARK    5  A    between atoms: _10  and  _12
REMARK    6  A    between atoms: _12  and  _13
REMARK    7  A    between atoms: _12  and  _15
REMARK    8  A    between atoms: _15  and  _16
REMARK    9  A    between atoms: _16  and  _17
REMARK   10  A    between atoms: _20  and  _22
REMARK   11  A    between atoms: _22  and  _23
REMARK   12  A    between atoms: _22  and  _25
REMARK   13  A    between atoms: _25  and  _26
REMARK   14  A    between atoms: _28  and  _30
REMARK   15  A    between atoms: _30  and  _31
REMARK   16  A    between atoms: _30  and  _33
REMARK   17  A    between atoms: _33  and  _34
REMARK   18  A    between atoms: _40  and  _42
REMARK   19  A    between atoms: _42  and  _43
REMARK   20  A    between atoms: _42  and  _45
REMARK   21  A    between atoms: _48  and  _50
REMARK   22  A    between atoms: _50  and  _51
REMARK   23  A    between atoms: _50  and  _53
REMARK   24  A    between atoms: _53  and  _54
REMARK   25  A    between atoms: _54  and  _55
REMARK   26  A    between atoms: _57  and  _59
REMARK   27  A    between atoms: _59  and  _60
REMARK   28  A    between atoms: _59  and  _62
REMARK   29  A    between atoms: _62  and  _63
REMARK   30  A    between atoms: _65  and  _67
REMARK   31  A    between atoms: _67  and  _68
REMARK   32  A    between atoms: _67  and  _70
REMARK   33  A    between atoms: _70  and  _71
REMARK   34  A    between atoms: _74  and  _76
REMARK   35  A    between atoms: _76  and  _77
REMARK   36  A    between atoms: _79  and  _81
REMARK   37  A    between atoms: _81  and  _82
REMARK   38  A    between atoms: _81  and  _84
REMARK   39  A    between atoms: _87  and  _89
REMARK   40  A    between atoms: _89  and  _90
REMARK   41  A    between atoms: _89  and  _92
REMARK   42  A    between atoms: _92  and  _93
REMARK   43  A    between atoms: _95  and  _97
REMARK   44  A    between atoms: _97  and  _98
REMARK   45  A    between atoms: _101  and  _103
REMARK   46  A    between atoms: _103  and  _104
REMARK   47  A    between atoms: _103  and  _106
REMARK   48  A    between atoms: _106  and  _107
REMARK   49  A    between atoms: _110  and  _112
REMARK   50  A    between atoms: _112  and  _113
REMARK   51  A    between atoms: _112  and  _115
REMARK   52  A    between atoms: _115  and  _116
REMARK   53  A    between atoms: _116  and  _117
REMARK   54  A    between atoms: _117  and  _118
REMARK   55  A    between atoms: _127  and  _129
REMARK   56  A    between atoms: _129  and  _130
REMARK   57  A    between atoms: _129  and  _132
REMARK   58  A    between atoms: _132  and  _133
REMARK   59  A    between atoms: _133  and  _134
REMARK   60  A    between atoms: _139  and  _141
REMARK   61  A    between atoms: _141  and  _142
REMARK   62  A    between atoms: _141  and  _144
REMARK   63  A    between atoms: _144  and  _145
REMARK   64  A    between atoms: _148  and  _150
REMARK   65  A    between atoms: _150  and  _151
REMARK   66  A    between atoms: _153  and  _155
REMARK   67  A    between atoms: _155  and  _156
REMARK   68  A    between atoms: _155  and  _158
REMARK   69  A    between atoms: _158  and  _159
REMARK   70  A    between atoms: _164  and  _166
REMARK   71  A    between atoms: _166  and  _167
REMARK   72  A    between atoms: _166  and  _169
REMARK   73  A    between atoms: _169  and  _170
REMARK   74  A    between atoms: _173  and  _175
REMARK   75  A    between atoms: _175  and  _176
REMARK   76  A    between atoms: _175  and  _178
REMARK   77  A    between atoms: _181  and  _183
REMARK   78  A    between atoms: _183  and  _184
REMARK   79  A    between atoms: _183  and  _186
REMARK   80  A    between atoms: _186  and  _187
REMARK   81  A    between atoms: _191  and  _192
REMARK   82  A    between atoms: _197  and  _199
REMARK   83  A    between atoms: _199  and  _200
REMARK   84  A    between atoms: _199  and  _202
REMARK   85  A    between atoms: _202  and  _203
REMARK   86  A    between atoms: _206  and  _208
REMARK   87  A    between atoms: _208  and  _209
REMARK   88  A    between atoms: _208  and  _211
REMARK   89  A    between atoms: _214  and  _216
REMARK   90  A    between atoms: _216  and  _217
REMARK   91  A    between atoms: _216  and  _219
REMARK   92  A    between atoms: _219  and  _220
REMARK   93  A    between atoms: _226  and  _228
REMARK   94  A    between atoms: _228  and  _229
REMARK   95  A    between atoms: _228  and  _231
REMARK   96  A    between atoms: _231  and  _232
REMARK   97  A    between atoms: _232  and  _233
REMARK   98  A    between atoms: _235  and  _237
REMARK   99  A    between atoms: _237  and  _238
REMARK  100  A    between atoms: _237  and  _240
REMARK  101  A    between atoms: _240  and  _241
REMARK  102  A    between atoms: _244  and  _246
REMARK  103  A    between atoms: _246  and  _247
REMARK  104  A    between atoms: _246  and  _249
REMARK  105  A    between atoms: _249  and  _250
REMARK  106  A    between atoms: _250  and  _251
REMARK  107  A    between atoms: _254  and  _256
REMARK  108  A    between atoms: _256  and  _257
REMARK  109  A    between atoms: _256  and  _259
REMARK  110  A    between atoms: _259  and  _260
REMARK  111  A    between atoms: _262  and  _264
REMARK  112  A    between atoms: _264  and  _265
REMARK  113  A    between atoms: _264  and  _267
REMARK  114  A    between atoms: _267  and  _268
REMARK  115  A    between atoms: _271  and  _273
REMARK  116  A    between atoms: _273  and  _274
REMARK  117  A    between atoms: _273  and  _276
REMARK  118  A    between atoms: _276  and  _277
REMARK  119  A    between atoms: _283  and  _285
REMARK  120  A    between atoms: _285  and  _286
REMARK  121  A    between atoms: _285  and  _288
REMARK  122  A    between atoms: _288  and  _289
REMARK  123  A    between atoms: _289  and  _290
REMARK  124  A    between atoms: _290  and  _291
REMARK  125  A    between atoms: _291  and  _292
REMARK  126  A    between atoms: _296  and  _298
REMARK  127  A    between atoms: _298  and  _299
REMARK  128  A    between atoms: _298  and  _301
REMARK  129  A    between atoms: _301  and  _302
REMARK  130  A    between atoms: _307  and  _309
REMARK  131  A    between atoms: _309  and  _310
REMARK  132  A    between atoms: _309  and  _312
REMARK  133  A    between atoms: _312  and  _313
REMARK  134  A    between atoms: _316  and  _318
REMARK  135  A    between atoms: _318  and  _319
REMARK  136  A    between atoms: _318  and  _321
REMARK  137  A    between atoms: _321  and  _322
REMARK  138  A    between atoms: _322  and  _323
REMARK  139  A    between atoms: _326  and  _328
REMARK  140  A    between atoms: _328  and  _329
REMARK  141  A    between atoms: _328  and  _331
REMARK  142  A    between atoms: _331  and  _332
REMARK  143  A    between atoms: _335  and  _337
REMARK  144  A    between atoms: _337  and  _338
REMARK  145  A    between atoms: _337  and  _340
REMARK  146  A    between atoms: _340  and  _341
REMARK  147  A    between atoms: _343  and  _345
REMARK  148  A    between atoms: _345  and  _346
REMARK  149  A    between atoms: _345  and  _348
REMARK  150  A    between atoms: _348  and  _349
REMARK  151  A    between atoms: _352  and  _354
REMARK  152  A    between atoms: _354  and  _355
REMARK  153  A    between atoms: _357  and  _359
REMARK  154  A    between atoms: _359  and  _360
REMARK  155  A    between atoms: _359  and  _362
REMARK  156  A    between atoms: _362  and  _363
REMARK  157  A    between atoms: _363  and  _364
REMARK  158  A    between atoms: _364  and  _365
REMARK  159  A    between atoms: _374  and  _376
REMARK  160  A    between atoms: _376  and  _377
REMARK  161  A    between atoms: _376  and  _379
REMARK  162  A    between atoms: _379  and  _380
REMARK  163  A    between atoms: _380  and  _381
REMARK  164  A    between atoms: _386  and  _388
REMARK  165  A    between atoms: _388  and  _389
REMARK  166  A    between atoms: _388  and  _391
REMARK  167  A    between atoms: _391  and  _392
REMARK  168  A    between atoms: _392  and  _393
REMARK  169  A    between atoms: _398  and  _400
REMARK  170  A    between atoms: _400  and  _401
REMARK  171  A    between atoms: _400  and  _403
REMARK  172  A    between atoms: _403  and  _404
REMARK  173  A    between atoms: _407  and  _409
REMARK  174  A    between atoms: _409  and  _410
REMARK  175  A    between atoms: _409  and  _412
REMARK  176  A    between atoms: _415  and  _417
REMARK  177  A    between atoms: _417  and  _418
REMARK  178  A    between atoms: _417  and  _420
REMARK  179  A    between atoms: _420  and  _421
REMARK  180  A    between atoms: _424  and  _426
REMARK  181  A    between atoms: _426  and  _427
REMARK  182  A    between atoms: _426  and  _429
REMARK  183  A    between atoms: _432  and  _434
REMARK  184  A    between atoms: _434  and  _435
REMARK  185  A    between atoms: _434  and  _437
REMARK  186  A    between atoms: _437  and  _438
REMARK  187  A    between atoms: _438  and  _439
REMARK  188  A    between atoms: _439  and  _440
REMARK  189  A    between atoms: _449  and  _451
REMARK  190  A    between atoms: _451  and  _452
REMARK  191  A    between atoms: _451  and  _454
REMARK  192  A    between atoms: _454  and  _455
REMARK  193  A    between atoms: _455  and  _456
REMARK  194  A    between atoms: _458  and  _460
REMARK  195  A    between atoms: _460  and  _461
REMARK  196  A    between atoms: _460  and  _463
REMARK  197  A    between atoms: _463  and  _464
REMARK  198  A    between atoms: _464  and  _465
REMARK  199  A    between atoms: _465  and  _466
REMARK  200  A    between atoms: _466  and  _467
REMARK  201  A    between atoms: _471  and  _473
REMARK  202  A    between atoms: _473  and  _474
REMARK  203  A    between atoms: _473  and  _476
REMARK  204  A    between atoms: _476  and  _477
REMARK  205  A    between atoms: _480  and  _482
REMARK  206  A    between atoms: _482  and  _483
REMARK  207  A    between atoms: _482  and  _485
REMARK  208  A    between atoms: _485  and  _486
REMARK  209  A    between atoms: _489  and  _491
REMARK  210  A    between atoms: _491  and  _492
REMARK  211  A    between atoms: _491  and  _494
REMARK  212  A    between atoms: _497  and  _499
REMARK  213  A    between atoms: _499  and  _500
REMARK  214  A    between atoms: _499  and  _502
REMARK  215  A    between atoms: _502  and  _503
REMARK  216  A    between atoms: _506  and  _508
REMARK  217  A    between atoms: _508  and  _509
REMARK  218  A    between atoms: _508  and  _511
REMARK  219  A    between atoms: _514  and  _516
REMARK  220  A    between atoms: _516  and  _517
REMARK  221  A    between atoms: _520  and  _522
REMARK  222  A    between atoms: _522  and  _523
REMARK  223  A    between atoms: _522  and  _525
REMARK  224  A    between atoms: _525  and  _526
REMARK  225  A    between atoms: _529  and  _531
REMARK  226  A    between atoms: _531  and  _532
REMARK  227  A    between atoms: _531  and  _534
REMARK  228  A    between atoms: _534  and  _535
REMARK  229  A    between atoms: _535  and  _536
REMARK  230  A    between atoms: _536  and  _537
REMARK  231  A    between atoms: _546  and  _548
REMARK  232  A    between atoms: _548  and  _549
REMARK  233  A    between atoms: _548  and  _551
REMARK  234  A    between atoms: _551  and  _552
REMARK  235  A    between atoms: _557  and  _559
REMARK  236  A    between atoms: _559  and  _560
REMARK  237  A    between atoms: _559  and  _562
REMARK  238  A    between atoms: _562  and  _563
REMARK  239  A    between atoms: _568  and  _569
REMARK                            x       y       z     vdW  Elec       q    Type
REMARK                         _______ _______ _______ _____ _____    ______ ____
ROOT
ATOM      1  CA  GLU A   1      12.997  38.439  18.021  0.00  0.00    +0.134 C 
ENDROOT
BRANCH   1   2
ATOM      2  N   GLU A   1      13.012  38.297  19.454  0.00  0.00    -0.239 NA
ATOM      3  H   GLU A   1      12.291  37.703  19.912  0.00  0.00    +0.142 HD
ENDBRANCH   1   2
BRANCH   1   4
ATOM      4  C   GLU A   1      11.587  38.180  17.557  0.00  0.00    +0.224 C 
ATOM      5  O   GLU A   1      10.884  37.376  18.149  0.00  0.00    -0.287 OA
ENDBRANCH   1   4
BRANCH   1   6
ATOM      6  CB  GLU A   1      13.959  37.417  17.424  0.00  0.00    +0.037 C 
BRANCH   6   7
ATOM      7  CG  GLU A   1      14.274  37.579  15.953  0.00  0.00    +0.116 C 
BRANCH   7   8
ATOM      8  CD  GLU A   1      14.666  36.259  15.338  0.00  0.00    +0.365 C 
ATOM      9  OE2 GLU A   1      15.474  35.540  15.961  0.00  0.00    -0.246 OA
ATOM     10  OE1 GLU A   1      14.149  35.934  14.248  0.00  0.00    -0.246 OA
ENDBRANCH   7   8
ENDBRANCH   6   7
ENDBRANCH   1   6
TORSDOF 5
REMARK  Name = ../refined-set-2016/1vyg/1vyg_pocket.pdb
REMARK  239 active torsions:
REMARK  status: ('A' for Active; 'I' for Inactive)
REMARK    1  A    between atoms: _1  and  _3
REMARK    2  A    between atoms: _3  and  _4
REMARK    3  A    between atoms: _3  and  _6
REMARK    4  A    between atoms: _6  and  _7
REMARK    5  A    between atoms: _10  and  _12
REMARK    6  A    between atoms: _12  and  _13
REMARK    7  A    between atoms: _12  and  _15
REMARK    8  A    between atoms: _15  and  _16
REMARK    9  A    between atoms: _16  and  _17
REMARK   10  A    between atoms: _20  and  _22
REMARK   11  A    between atoms: _22  and  _23
REMARK   12  A    between atoms: _22  and  _25
REMARK   13  A    between atoms: _25  and  _26
REMARK   14  A    between atoms: _28  and  _30
REMARK   15  A    between atoms: _30  and  _31
REMARK   16  A    between atoms: _30  and  _33
REMARK   17  A    between atoms: _33  and  _34
REMARK   18  A    between atoms: _40  and  _42
REMARK   19  A    between atoms: _42  and  _43
REMARK   20  A    between atoms: _42  and  _45
REMARK   21  A    between atoms: _48  and  _50
REMARK   22  A    between atoms: _50  and  _51
REMARK   23  A    between atoms: _50  and  _53
REMARK   24  A    between atoms: _53  and  _54
REMARK   25  A    between atoms: _54  and  _55
REMARK   26  A    between atoms: _57  and  _59
REMARK   27  A    between atoms: _59  and  _60
REMARK   28  A    between atoms: _59  and  _62
REMARK   29  A    between atoms: _62  and  _63
REMARK   30  A    between atoms: _65  and  _67
REMARK   31  A    between atoms: _67  and  _68
REMARK   32  A    between atoms: _67  and  _70
REMARK   33  A    between atoms: _70  and  _71
REMARK   34  A    between atoms: _74  and  _76
REMARK   35  A    between atoms: _76  and  _77
REMARK   36  A    between atoms: _79  and  _81
REMARK   37  A    between atoms: _81  and  _82
REMARK   38  A    between atoms: _81  and  _84
REMARK   39  A    between atoms: _87  and  _89
REMARK   40  A    between atoms: _89  and  _90
REMARK   41  A    between atoms: _89  and  _92
REMARK   42  A    between atoms: _92  and  _93
REMARK   43  A    between atoms: _95  and  _97
REMARK   44  A    between atoms: _97  and  _98
REMARK   45  A    between atoms: _101  and  _103
REMARK   46  A    between atoms: _103  and  _104
REMARK   47  A    between atoms: _103  and  _106
REMARK   48  A    between atoms: _106  and  _107
REMARK   49  A    between atoms: _110  and  _112
REMARK   50  A    between atoms: _112  and  _113
REMARK   51  A    between atoms: _112  and  _115
REMARK   52  A    between atoms: _115  and  _116
REMARK   53  A    between atoms: _116  and  _117
REMARK   54  A    between atoms: _117  and  _118
REMARK   55  A    between atoms: _127  and  _129
REMARK   56  A    between atoms: _129  and  _130
REMARK   57  A    between atoms: _129  and  _132
REMARK   58  A    between atoms: _132  and  _133
REMARK   59  A    between atoms: _133  and  _134
REMARK   60  A    between atoms: _139  and  _141
REMARK   61  A    between atoms: _141  and  _142
REMARK   62  A    between atoms: _141  and  _144
REMARK   63  A    between atoms: _144  and  _145
REMARK   64  A    between atoms: _148  and  _150
REMARK   65  A    between atoms: _150  and  _151
REMARK   66  A    between atoms: _153  and  _155
REMARK   67  A    between atoms: _155  and  _156
REMARK   68  A    between atoms: _155  and  _158
REMARK   69  A    between atoms: _158  and  _159
REMARK   70  A    between atoms: _164  and  _166
REMARK   71  A    between atoms: _166  and  _167
REMARK   72  A    between atoms: _166  and  _169
REMARK   73  A    between atoms: _169  and  _170
REMARK   74  A    between atoms: _173  and  _175
REMARK   75  A    between atoms: _175  and  _176
REMARK   76  A    between atoms: _175  and  _178
REMARK   77  A    between atoms: _181  and  _183
REMARK   78  A    between atoms: _183  and  _184
REMARK   79  A    between atoms: _183  and  _186
REMARK   80  A    between atoms: _186  and  _187
REMARK   81  A    between atoms: _191  and  _192
REMARK   82  A    between atoms: _197  and  _199
REMARK   83  A    between atoms: _199  and  _200
REMARK   84  A    between atoms: _199  and  _202
REMARK   85  A    between atoms: _202  and  _203
REMARK   86  A    between atoms: _206  and  _208
REMARK   87  A    between atoms: _208  and  _209
REMARK   88  A    between atoms: _208  and  _211
REMARK   89  A    between atoms: _214  and  _216
REMARK   90  A    between atoms: _216  and  _217
REMARK   91  A    between atoms: _216  and  _219
REMARK   92  A    between atoms: _219  and  _220
REMARK   93  A    between atoms: _226  and  _228
REMARK   94  A    between atoms: _228  and  _229
REMARK   95  A    between atoms: _228  and  _231
REMARK   96  A    between atoms: _231  and  _232
REMARK   97  A    between atoms: _232  and  _233
REMARK   98  A    between atoms: _235  and  _237
REMARK   99  A    between atoms: _237  and  _238
REMARK  100  A    between atoms: _237  and  _240
REMARK  101  A    between atoms: _240  and  _241
REMARK  102  A    between atoms: _244  and  _246
REMARK  103  A    between atoms: _246  and  _247
REMARK  104  A    between atoms: _246  and  _249
REMARK  105  A    between atoms: _249  and  _250
REMARK  106  A    between atoms: _250  and  _251
REMARK  107  A    between atoms: _254  and  _256
REMARK  108  A    between atoms: _256  and  _257
REMARK  109  A    between atoms: _256  and  _259
REMARK  110  A    between atoms: _259  and  _260
REMARK  111  A    between atoms: _262  and  _264
REMARK  112  A    between atoms: _264  and  _265
REMARK  113  A    between atoms: _264  and  _267
REMARK  114  A    between atoms: _267  and  _268
REMARK  115  A    between atoms: _271  and  _273
REMARK  116  A    between atoms: _273  and  _274
REMARK  117  A    between atoms: _273  and  _276
REMARK  118  A    between atoms: _276  and  _277
REMARK  119  A    between atoms: _283  and  _285
REMARK  120  A    between atoms: _285  and  _286
REMARK  121  A    between atoms: _285  and  _288
REMARK  122  A    between atoms: _288  and  _289
REMARK  123  A    between atoms: _289  and  _290
REMARK  124  A    between atoms: _290  and  _291
REMARK  125  A    between atoms: _291  and  _292
REMARK  126  A    between atoms: _296  and  _298
REMARK  127  A    between atoms: _298  and  _299
REMARK  128  A    between atoms: _298  and  _301
REMARK  129  A    between atoms: _301  and  _302
REMARK  130  A    between atoms: _307  and  _309
REMARK  131  A    between atoms: _309  and  _310
REMARK  132  A    between atoms: _309  and  _312
REMARK  133  A    between atoms: _312  and  _313
REMARK  134  A    between atoms: _316  and  _318
REMARK  135  A    between atoms: _318  and  _319
REMARK  136  A    between atoms: _318  and  _321
REMARK  137  A    between atoms: _321  and  _322
REMARK  138  A    between atoms: _322  and  _323
REMARK  139  A    between atoms: _326  and  _328
REMARK  140  A    between atoms: _328  and  _329
REMARK  141  A    between atoms: _328  and  _331
REMARK  142  A    between atoms: _331  and  _332
REMARK  143  A    between atoms: _335  and  _337
REMARK  144  A    between atoms: _337  and  _338
REMARK  145  A    between atoms: _337  and  _340
REMARK  146  A    between atoms: _340  and  _341
REMARK  147  A    between atoms: _343  and  _345
REMARK  148  A    between atoms: _345  and  _346
REMARK  149  A    between atoms: _345  and  _348
REMARK  150  A    between atoms: _348  and  _349
REMARK  151  A    between atoms: _352  and  _354
REMARK  152  A    between atoms: _354  and  _355
REMARK  153  A    between atoms: _357  and  _359
REMARK  154  A    between atoms: _359  and  _360
REMARK  155  A    between atoms: _359  and  _362
REMARK  156  A    between atoms: _362  and  _363
REMARK  157  A    between atoms: _363  and  _364
REMARK  158  A    between atoms: _364  and  _365
REMARK  159  A    between atoms: _374  and  _376
REMARK  160  A    between atoms: _376  and  _377
REMARK  161  A    between atoms: _376  and  _379
REMARK  162  A    between atoms: _379  and  _380
REMARK  163  A    between atoms: _380  and  _381
REMARK  164  A    between atoms: _386  and  _388
REMARK  165  A    between atoms: _388  and  _389
REMARK  166  A    between atoms: _388  and  _391
REMARK  167  A    between atoms: _391  and  _392
REMARK  168  A    between atoms: _392  and  _393
REMARK  169  A    between atoms: _398  and  _400
REMARK  170  A    between atoms: _400  and  _401
REMARK  171  A    between atoms: _400  and  _403
REMARK  172  A    between atoms: _403  and  _404
REMARK  173  A    between atoms: _407  and  _409
REMARK  174  A    between atoms: _409  and  _410
REMARK  175  A    between atoms: _409  and  _412
REMARK  176  A    between atoms: _415  and  _417
REMARK  177  A    between atoms: _417  and  _418
REMARK  178  A    between atoms: _417  and  _420
REMARK  179  A    between atoms: _420  and  _421
REMARK  180  A    between atoms: _424  and  _426
REMARK  181  A    between atoms: _426  and  _427
REMARK  182  A    between atoms: _426  and  _429
REMARK  183  A    between atoms: _432  and  _434
REMARK  184  A    between atoms: _434  and  _435
REMARK  185  A    between atoms: _434  and  _437
REMARK  186  A    between atoms: _437  and  _438
REMARK  187  A    between atoms: _438  and  _439
REMARK  188  A    between atoms: _439  and  _440
REMARK  189  A    between atoms: _449  and  _451
REMARK  190  A    between atoms: _451  and  _452
REMARK  191  A    between atoms: _451  and  _454
REMARK  192  A    between atoms: _454  and  _455
REMARK  193  A    between atoms: _455  and  _456
REMARK  194  A    between atoms: _458  and  _460
REMARK  195  A    between atoms: _460  and  _461
REMARK  196  A    between atoms: _460  and  _463
REMARK  197  A    between atoms: _463  and  _464
REMARK  198  A    between atoms: _464  and  _465
REMARK  199  A    between atoms: _465  and  _466
REMARK  200  A    between atoms: _466  and  _467
REMARK  201  A    between atoms: _471  and  _473
REMARK  202  A    between atoms: _473  and  _474
REMARK  203  A    between atoms: _473  and  _476
REMARK  204  A    between atoms: _476  and  _477
REMARK  205  A    between atoms: _480  and  _482
REMARK  206  A    between atoms: _482  and  _483
REMARK  207  A    between atoms: _482  and  _485
REMARK  208  A    between atoms: _485  and  _486
REMARK  209  A    between atoms: _489  and  _491
REMARK  210  A    between atoms: _491  and  _492
REMARK  211  A    between atoms: _491  and  _494
REMARK  212  A    between atoms: _497  and  _499
REMARK  213  A    between atoms: _499  and  _500
REMARK  214  A    between atoms: _499  and  _502
REMARK  215  A    between atoms: _502  and  _503
REMARK  216  A    between atoms: _506  and  _508
REMARK  217  A    between atoms: _508  and  _509
REMARK  218  A    between atoms: _508  and  _511
REMARK  219  A    between atoms: _514  and  _516
REMARK  220  A    between atoms: _516  and  _517
REMARK  221  A    between atoms: _520  and  _522
REMARK  222  A    between atoms: _522  and  _523
REMARK  223  A    between atoms: _522  and  _525
REMARK  224  A    between atoms: _525  and  _526
REMARK  225  A    between atoms: _529  and  _531
REMARK  226  A    between atoms: _531  and  _532
REMARK  227  A    between atoms: _531  and  _534
REMARK  228  A    between atoms: _534  and  _535
REMARK  229  A    between atoms: _535  and  _536
REMARK  230  A    between atoms: _536  and  _537
REMARK  231  A    between atoms: _546  and  _548
REMARK  232  A    between atoms: _548  and  _549
REMARK  233  A    between atoms: _548  and  _551
REMARK  234  A    between atoms: _551  and  _552
REMARK  235  A    between atoms: _557  and  _559
REMARK  236  A    between atoms: _559  and  _560
REMARK  237  A    between atoms: _559  and  _562
REMARK  238  A    between atoms: _562  and  _563
REMARK  239  A    between atoms: _568  and  _569
REMARK                            x       y       z     vdW  Elec       q    Type
REMARK                         _______ _______ _______ _____ _____    ______ ____
ROOT
ATOM      1  CA  ASP A   3       5.888  34.744   9.948  0.00  0.00    +0.160 C 
ENDROOT
BRANCH   1   3
ATOM      2  C   SER A   2       7.576  36.485   9.471  0.00  0.00    +0.243 C 
ATOM      3  N   ASP A   3       7.171  35.376   9.848  0.00  0.00    -0.296 N 
ATOM      4  H   ASP A   3       7.944  34.758  10.167  0.00  0.00    +0.150 HD
ATOM      5  O   SER A   2       6.766  37.321   9.138  0.00  0.00    -0.273 OA
BRANCH   2   6
ATOM      6  CA  SER A   2       9.059  36.807   9.488  0.00  0.00    +0.178 C 
BRANCH   6   9
ATOM      7  C   THR A   1       9.346  36.621  11.910  0.00  0.00    +0.241 C 
ATOM      8  O   THR A   1       8.396  37.378  12.165  0.00  0.00    -0.274 OA
ATOM      9  N   SER A   2       9.709  36.261  10.676  0.00  0.00    -0.295 N 
ATOM     10  H   SER A   2      10.478  35.571  10.558  0.00  0.00    +0.150 HD
BRANCH   7  11
ATOM     11  CA  THR A   1      10.174  36.038  13.029  0.00  0.00    +0.172 C 
BRANCH  11  12
ATOM     12  N   THR A   1       9.852  36.783  14.232  0.00  0.00    -0.236 NA
ATOM     13  H   THR A   1       9.188  36.362  14.913  0.00  0.00    +0.142 HD
ENDBRANCH  11  12
BRANCH  11  14
ATOM     14  CB  THR A   1       9.904  34.482  13.172  0.00  0.00    +0.135 C 
ATOM     15  CG2 THR A   1      10.499  33.916  14.430  0.00  0.00    +0.034 C 
BRANCH  14  16
ATOM     16  OG1 THR A   1       8.509  34.205  13.306  0.00  0.00    -0.383 OA
ATOM     17  HG1 THR A   1       8.030  34.535  12.505  0.00  0.00    +0.210 HD
ENDBRANCH  14  16
ENDBRANCH  11  14
ENDBRANCH   7  11
ENDBRANCH   6   9
BRANCH   6  18
ATOM     18  CB  SER A   2       9.722  36.290   8.217  0.00  0.00    +0.166 C 
BRANCH  18  19
ATOM     19  OG  SER A   2       9.784  34.869   8.178  0.00  0.00    -0.380 OA
ATOM     20  H   SER A   2      10.221  34.582   7.337  0.00  0.00    +0.211 HD
ENDBRANCH  18  19
ENDBRANCH   6  18
ENDBRANCH   2   6
ENDBRANCH   1   3
BRANCH   1  21
ATOM     21  C   ASP A   3       5.097  35.304  11.096  0.00  0.00    +0.241 C 
ATOM     22  N   GLY A   4       5.822  35.905  12.063  0.00  0.00    -0.295 N 
ATOM     23  H   GLY A   4       6.861  35.908  12.015  0.00  0.00    +0.150 HD
ATOM     24  O   ASP A   3       3.881  35.292  11.195  0.00  0.00    -0.273 OA
BRANCH  22  25
ATOM     25  CA  GLY A   4       5.151  36.535  13.149  0.00  0.00    +0.176 C 
BRANCH  25  26
ATOM     26  C   GLY A   4       5.165  35.913  14.492  0.00  0.00    +0.243 C 
ATOM     27  O   GLY A   4       4.395  36.314  15.349  0.00  0.00    -0.273 OA
ATOM     28  N   ARG A   5       6.006  34.920  14.721  0.00  0.00    -0.298 N 
ATOM     29  H   ARG A   5       6.606  34.543  13.960  0.00  0.00    +0.150 HD
BRANCH  28  30
ATOM     30  CA  ARG A   5       6.072  34.360  16.086  0.00  0.00    +0.137 C 
BRANCH  30  31
ATOM     31  C   ARG A   5       7.072  35.241  16.877  0.00  0.00    +0.227 C 
ATOM     32  O   ARG A   5       8.037  35.777  16.394  0.00  0.00    -0.286 OA
ENDBRANCH  30  31
BRANCH  30  33
ATOM     33  CB  ARG A   5       6.523  32.929  15.995  0.00  0.00    +0.031 C 
BRANCH  33  34
ATOM     34  CG  ARG A   5       5.592  32.033  15.246  0.00  0.00    +0.045 C 
BRANCH  34  35
ATOM     35  CD  ARG A   5       6.361  30.590  14.990  0.00  0.00    +0.174 C 
BRANCH  35  36
ATOM     36  NE  ARG A   5       7.350  30.657  13.959  0.00  0.00    -0.265 N 
ATOM     37  CZ  ARG A   5       8.639  30.479  14.040  0.00  0.00    +0.342 C 
ATOM     38  NH2 ARG A   5       9.180  30.100  15.164  0.00  0.00    -0.292 N 
ATOM     39 HH21 ARG A   5       8.583  29.939  16.000  0.00  0.00    +0.255 HD
ATOM     40 HH22 ARG A   5      10.209  29.959  15.225  0.00  0.00    +0.255 HD
ATOM     41  NH1 ARG A   5       9.394  30.644  12.989  0.00  0.00    -0.292 N 
ATOM     42 HH11 ARG A   5      10.422  30.501  13.059  0.00  0.00    +0.255 HD
ATOM     43 HH12 ARG A   5       8.968  30.919  12.081  0.00  0.00    +0.255 HD
ATOM     44  HE  ARG A   5       6.989  30.879  13.009  0.00  0.00    +0.259 HD
ENDBRANCH  35  36
ENDBRANCH  34  35
ENDBRANCH  33  34
ENDBRANCH  30  33
ENDBRANCH  28  30
ENDBRANCH  25  26
ENDBRANCH  22  25
ENDBRANCH   1  21
BRANCH   1  45
ATOM     45  CB  ASP A   3       5.917  33.242   9.992  0.00  0.00    +0.143 C 
BRANCH  45  46
ATOM     46  CG  ASP A   3       6.521  32.726  11.276  0.00  0.00    +0.367 C 
ATOM     47  OD2 ASP A   3       5.762  32.440  12.193  0.00  0.00    -0.246 OA
ATOM     48  OD1 ASP A   3       7.744  32.689  11.338  0.00  0.00    -0.246 OA
ENDBRANCH  45  46
ENDBRANCH   1  45
TORSDOF 20
REMARK  Name = ../refined-set-2016/1vyg/1vyg_pocket.pdb
REMARK  239 active torsions:
REMARK  status: ('A' for Active; 'I' for Inactive)
REMARK    1  A    between atoms: _1  and  _3
REMARK    2  A    between atoms: _3  and  _4
REMARK    3  A    between atoms: _3  and  _6
REMARK    4  A    between atoms: _6  and  _7
REMARK    5  A    between atoms: _10  and  _12
REMARK    6  A    between atoms: _12  and  _13
REMARK    7  A    between atoms: _12  and  _15
REMARK    8  A    between atoms: _15  and  _16
REMARK    9  A    between atoms: _16  and  _17
REMARK   10  A    between atoms: _20  and  _22
REMARK   11  A    between atoms: _22  and  _23
REMARK   12  A    between atoms: _22  and  _25
REMARK   13  A    between atoms: _25  and  _26
REMARK   14  A    between atoms: _28  and  _30
REMARK   15  A    between atoms: _30  and  _31
REMARK   16  A    between atoms: _30  and  _33
REMARK   17  A    between atoms: _33  and  _34
REMARK   18  A    between atoms: _40  and  _42
REMARK   19  A    between atoms: _42  and  _43
REMARK   20  A    between atoms: _42  and  _45
REMARK   21  A    between atoms: _48  and  _50
REMARK   22  A    between atoms: _50  and  _51
REMARK   23  A    between atoms: _50  and  _53
REMARK   24  A    between atoms: _53  and  _54
REMARK   25  A    between atoms: _54  and  _55
REMARK   26  A    between atoms: _57  and  _59
REMARK   27  A    between atoms: _59  and  _60
REMARK   28  A    between atoms: _59  and  _62
REMARK   29  A    between atoms: _62  and  _63
REMARK   30  A    between atoms: _65  and  _67
REMARK   31  A    between atoms: _67  and  _68
REMARK   32  A    between atoms: _67  and  _70
REMARK   33  A    between atoms: _70  and  _71
REMARK   34  A    between atoms: _74  and  _76
REMARK   35  A    between atoms: _76  and  _77
REMARK   36  A    between atoms: _79  and  _81
REMARK   37  A    between atoms: _81  and  _82
REMARK   38  A    between atoms: _81  and  _84
REMARK   39  A    between atoms: _87  and  _89
REMARK   40  A    between atoms: _89  and  _90
REMARK   41  A    between atoms: _89  and  _92
REMARK   42  A    between atoms: _92  and  _93
REMARK   43  A    between atoms: _95  and  _97
REMARK   44  A    between atoms: _97  and  _98
REMARK   45  A    between atoms: _101  and  _103
REMARK   46  A    between atoms: _103  and  _104
REMARK   47  A    between atoms: _103  and  _106
REMARK   48  A    between atoms: _106  and  _107
REMARK   49  A    between atoms: _110  and  _112
REMARK   50  A    between atoms: _112  and  _113
REMARK   51  A    between atoms: _112  and  _115
REMARK   52  A    between atoms: _115  and  _116
REMARK   53  A    between atoms: _116  and  _117
REMARK   54  A    between atoms: _117  and  _118
REMARK   55  A    between atoms: _127  and  _129
REMARK   56  A    between atoms: _129  and  _130
REMARK   57  A    between atoms: _129  and  _132
REMARK   58  A    between atoms: _132  and  _133
REMARK   59  A    between atoms: _133  and  _134
REMARK   60  A    between atoms: _139  and  _141
REMARK   61  A    between atoms: _141  and  _142
REMARK   62  A    between atoms: _141  and  _144
REMARK   63  A    between atoms: _144  and  _145
REMARK   64  A    between atoms: _148  and  _150
REMARK   65  A    between atoms: _150  and  _151
REMARK   66  A    between atoms: _153  and  _155
REMARK   67  A    between atoms: _155  and  _156
REMARK   68  A    between atoms: _155  and  _158
REMARK   69  A    between atoms: _158  and  _159
REMARK   70  A    between atoms: _164  and  _166
REMARK   71  A    between atoms: _166  and  _167
REMARK   72  A    between atoms: _166  and  _169
REMARK   73  A    between atoms: _169  and  _170
REMARK   74  A    between atoms: _173  and  _175
REMARK   75  A    between atoms: _175  and  _176
REMARK   76  A    between atoms: _175  and  _178
REMARK   77  A    between atoms: _181  and  _183
REMARK   78  A    between atoms: _183  and  _184
REMARK   79  A    between atoms: _183  and  _186
REMARK   80  A    between atoms: _186  and  _187
REMARK   81  A    between atoms: _191  and  _192
REMARK   82  A    between atoms: _197  and  _199
REMARK   83  A    between atoms: _199  and  _200
REMARK   84  A    between atoms: _199  and  _202
REMARK   85  A    between atoms: _202  and  _203
REMARK   86  A    between atoms: _206  and  _208
REMARK   87  A    between atoms: _208  and  _209
REMARK   88  A    between atoms: _208  and  _211
REMARK   89  A    between atoms: _214  and  _216
REMARK   90  A    between atoms: _216  and  _217
REMARK   91  A    between atoms: _216  and  _219
REMARK   92  A    between atoms: _219  and  _220
REMARK   93  A    between atoms: _226  and  _228
REMARK   94  A    between atoms: _228  and  _229
REMARK   95  A    between atoms: _228  and  _231
REMARK   96  A    between atoms: _231  and  _232
REMARK   97  A    between atoms: _232  and  _233
REMARK   98  A    between atoms: _235  and  _237
REMARK   99  A    between atoms: _237  and  _238
REMARK  100  A    between atoms: _237  and  _240
REMARK  101  A    between atoms: _240  and  _241
REMARK  102  A    between atoms: _244  and  _246
REMARK  103  A    between atoms: _246  and  _247
REMARK  104  A    between atoms: _246  and  _249
REMARK  105  A    between atoms: _249  and  _250
REMARK  106  A    between atoms: _250  and  _251
REMARK  107  A    between atoms: _254  and  _256
REMARK  108  A    between atoms: _256  and  _257
REMARK  109  A    between atoms: _256  and  _259
REMARK  110  A    between atoms: _259  and  _260
REMARK  111  A    between atoms: _262  and  _264
REMARK  112  A    between atoms: _264  and  _265
REMARK  113  A    between atoms: _264  and  _267
REMARK  114  A    between atoms: _267  and  _268
REMARK  115  A    between atoms: _271  and  _273
REMARK  116  A    between atoms: _273  and  _274
REMARK  117  A    between atoms: _273  and  _276
REMARK  118  A    between atoms: _276  and  _277
REMARK  119  A    between atoms: _283  and  _285
REMARK  120  A    between atoms: _285  and  _286
REMARK  121  A    between atoms: _285  and  _288
REMARK  122  A    between atoms: _288  and  _289
REMARK  123  A    between atoms: _289  and  _290
REMARK  124  A    between atoms: _290  and  _291
REMARK  125  A    between atoms: _291  and  _292
REMARK  126  A    between atoms: _296  and  _298
REMARK  127  A    between atoms: _298  and  _299
REMARK  128  A    between atoms: _298  and  _301
REMARK  129  A    between atoms: _301  and  _302
REMARK  130  A    between atoms: _307  and  _309
REMARK  131  A    between atoms: _309  and  _310
REMARK  132  A    between atoms: _309  and  _312
REMARK  133  A    between atoms: _312  and  _313
REMARK  134  A    between atoms: _316  and  _318
REMARK  135  A    between atoms: _318  and  _319
REMARK  136  A    between atoms: _318  and  _321
REMARK  137  A    between atoms: _321  and  _322
REMARK  138  A    between atoms: _322  and  _323
REMARK  139  A    between atoms: _326  and  _328
REMARK  140  A    between atoms: _328  and  _329
REMARK  141  A    between atoms: _328  and  _331
REMARK  142  A    between atoms: _331  and  _332
REMARK  143  A    between atoms: _335  and  _337
REMARK  144  A    between atoms: _337  and  _338
REMARK  145  A    between atoms: _337  and  _340
REMARK  146  A    between atoms: _340  and  _341
REMARK  147  A    between atoms: _343  and  _345
REMARK  148  A    between atoms: _345  and  _346
REMARK  149  A    between atoms: _345  and  _348
REMARK  150  A    between atoms: _348  and  _349
REMARK  151  A    between atoms: _352  and  _354
REMARK  152  A    between atoms: _354  and  _355
REMARK  153  A    between atoms: _357  and  _359
REMARK  154  A    between atoms: _359  and  _360
REMARK  155  A    between atoms: _359  and  _362
REMARK  156  A    between atoms: _362  and  _363
REMARK  157  A    between atoms: _363  and  _364
REMARK  158  A    between atoms: _364  and  _365
REMARK  159  A    between atoms: _374  and  _376
REMARK  160  A    between atoms: _376  and  _377
REMARK  161  A    between atoms: _376  and  _379
REMARK  162  A    between atoms: _379  and  _380
REMARK  163  A    between atoms: _380  and  _381
REMARK  164  A    between atoms: _386  and  _388
REMARK  165  A    between atoms: _388  and  _389
REMARK  166  A    between atoms: _388  and  _391
REMARK  167  A    between atoms: _391  and  _392
REMARK  168  A    between atoms: _392  and  _393
REMARK  169  A    between atoms: _398  and  _400
REMARK  170  A    between atoms: _400  and  _401
REMARK  171  A    between atoms: _400  and  _403
REMARK  172  A    between atoms: _403  and  _404
REMARK  173  A    between atoms: _407  and  _409
REMARK  174  A    between atoms: _409  and  _410
REMARK  175  A    between atoms: _409  and  _412
REMARK  176  A    between atoms: _415  and  _417
REMARK  177  A    between atoms: _417  and  _418
REMARK  178  A    between atoms: _417  and  _420
REMARK  179  A    between atoms: _420  and  _421
REMARK  180  A    between atoms: _424  and  _426
REMARK  181  A    between atoms: _426  and  _427
REMARK  182  A    between atoms: _426  and  _429
REMARK  183  A    between atoms: _432  and  _434
REMARK  184  A    between atoms: _434  and  _435
REMARK  185  A    between atoms: _434  and  _437
REMARK  186  A    between atoms: _437  and  _438
REMARK  187  A    between atoms: _438  and  _439
REMARK  188  A    between atoms: _439  and  _440
REMARK  189  A    between atoms: _449  and  _451
REMARK  190  A    between atoms: _451  and  _452
REMARK  191  A    between atoms: _451  and  _454
REMARK  192  A    between atoms: _454  and  _455
REMARK  193  A    between atoms: _455  and  _456
REMARK  194  A    between atoms: _458  and  _460
REMARK  195  A    between atoms: _460  and  _461
REMARK  196  A    between atoms: _460  and  _463
REMARK  197  A    between atoms: _463  and  _464
REMARK  198  A    between atoms: _464  and  _465
REMARK  199  A    between atoms: _465  and  _466
REMARK  200  A    between atoms: _466  and  _467
REMARK  201  A    between atoms: _471  and  _473
REMARK  202  A    between atoms: _473  and  _474
REMARK  203  A    between atoms: _473  and  _476
REMARK  204  A    between atoms: _476  and  _477
REMARK  205  A    between atoms: _480  and  _482
REMARK  206  A    between atoms: _482  and  _483
REMARK  207  A    between atoms: _482  and  _485
REMARK  208  A    between atoms: _485  and  _486
REMARK  209  A    between atoms: _489  and  _491
REMARK  210  A    between atoms: _491  and  _492
REMARK  211  A    between atoms: _491  and  _494
REMARK  212  A    between atoms: _497  and  _499
REMARK  213  A    between atoms: _499  and  _500
REMARK  214  A    between atoms: _499  and  _502
REMARK  215  A    between atoms: _502  and  _503
REMARK  216  A    between atoms: _506  and  _508
REMARK  217  A    between atoms: _508  and  _509
REMARK  218  A    between atoms: _508  and  _511
REMARK  219  A    between atoms: _514  and  _516
REMARK  220  A    between atoms: _516  and  _517
REMARK  221  A    between atoms: _520  and  _522
REMARK  222  A    between atoms: _522  and  _523
REMARK  223  A    between atoms: _522  and  _525
REMARK  224  A    between atoms: _525  and  _526
REMARK  225  A    between atoms: _529  and  _531
REMARK  226  A    between atoms: _531  and  _532
REMARK  227  A    between atoms: _531  and  _534
REMARK  228  A    between atoms: _534  and  _535
REMARK  229  A    between atoms: _535  and  _536
REMARK  230  A    between atoms: _536  and  _537
REMARK  231  A    between atoms: _546  and  _548
REMARK  232  A    between atoms: _548  and  _549
REMARK  233  A    between atoms: _548  and  _551
REMARK  234  A    between atoms: _551  and  _552
REMARK  235  A    between atoms: _557  and  _559
REMARK  236  A    between atoms: _559  and  _560
REMARK  237  A    between atoms: _559  and  _562
REMARK  238  A    between atoms: _562  and  _563
REMARK  239  A    between atoms: _568  and  _569
REMARK                            x       y       z     vdW  Elec       q    Type
REMARK                         _______ _______ _______ _____ _____    ______ ____
ROOT
ATOM      1  CB  GLN A   1      20.013  31.221  14.750  0.00  0.00    +0.035 C 
ENDROOT
BRANCH   1   2
ATOM      2  CA  GLN A   1      20.490  30.202  15.790  0.00  0.00    +0.134 C 
BRANCH   2   3
ATOM      3  N   GLN A   1      21.494  29.347  15.227  0.00  0.00    -0.239 NA
ATOM      4  H   GLN A   1      21.329  28.943  14.283  0.00  0.00    +0.142 HD
ENDBRANCH   2   3
BRANCH   2   5
ATOM      5  C   GLN A   1      19.359  29.313  16.205  0.00  0.00    +0.224 C 
ATOM      6  O   GLN A   1      18.662  28.768  15.349  0.00  0.00    -0.287 OA
ENDBRANCH   2   5
ENDBRANCH   1   2
BRANCH   1   7
ATOM      7  CG  GLN A   1      18.645  31.807  15.031  0.00  0.00    +0.087 C 
BRANCH   7   8
ATOM      8  CD  GLN A   1      18.372  33.061  14.247  0.00  0.00    +0.219 C 
ATOM      9  NE2 GLN A   1      17.536  33.925  14.797  0.00  0.00    -0.329 N 
ATOM     10 HE21 GLN A   1      17.119  33.724  15.728  0.00  0.00    +0.145 HD
ATOM     11 HE22 GLN A   1      17.295  34.805  14.298  0.00  0.00    +0.145 HD
ATOM     12  OE1 GLN A   1      18.896  33.243  13.149  0.00  0.00    -0.275 OA
ENDBRANCH   7   8
ENDBRANCH   1   7
TORSDOF 5
REMARK  Name = ../refined-set-2016/1vyg/1vyg_pocket.pdb
REMARK  239 active torsions:
REMARK  status: ('A' for Active; 'I' for Inactive)
REMARK    1  A    between atoms: _1  and  _3
REMARK    2  A    between atoms: _3  and  _4
REMARK    3  A    between atoms: _3  and  _6
REMARK    4  A    between atoms: _6  and  _7
REMARK    5  A    between atoms: _10  and  _12
REMARK    6  A    between atoms: _12  and  _13
REMARK    7  A    between atoms: _12  and  _15
REMARK    8  A    between atoms: _15  and  _16
REMARK    9  A    between atoms: _16  and  _17
REMARK   10  A    between atoms: _20  and  _22
REMARK   11  A    between atoms: _22  and  _23
REMARK   12  A    between atoms: _22  and  _25
REMARK   13  A    between atoms: _25  and  _26
REMARK   14  A    between atoms: _28  and  _30
REMARK   15  A    between atoms: _30  and  _31
REMARK   16  A    between atoms: _30  and  _33
REMARK   17  A    between atoms: _33  and  _34
REMARK   18  A    between atoms: _40  and  _42
REMARK   19  A    between atoms: _42  and  _43
REMARK   20  A    between atoms: _42  and  _45
REMARK   21  A    between atoms: _48  and  _50
REMARK   22  A    between atoms: _50  and  _51
REMARK   23  A    between atoms: _50  and  _53
REMARK   24  A    between atoms: _53  and  _54
REMARK   25  A    between atoms: _54  and  _55
REMARK   26  A    between atoms: _57  and  _59
REMARK   27  A    between atoms: _59  and  _60
REMARK   28  A    between atoms: _59  and  _62
REMARK   29  A    between atoms: _62  and  _63
REMARK   30  A    between atoms: _65  and  _67
REMARK   31  A    between atoms: _67  and  _68
REMARK   32  A    between atoms: _67  and  _70
REMARK   33  A    between atoms: _70  and  _71
REMARK   34  A    between atoms: _74  and  _76
REMARK   35  A    between atoms: _76  and  _77
REMARK   36  A    between atoms: _79  and  _81
REMARK   37  A    between atoms: _81  and  _82
REMARK   38  A    between atoms: _81  and  _84
REMARK   39  A    between atoms: _87  and  _89
REMARK   40  A    between atoms: _89  and  _90
REMARK   41  A    between atoms: _89  and  _92
REMARK   42  A    between atoms: _92  and  _93
REMARK   43  A    between atoms: _95  and  _97
REMARK   44  A    between atoms: _97  and  _98
REMARK   45  A    between atoms: _101  and  _103
REMARK   46  A    between atoms: _103  and  _104
REMARK   47  A    between atoms: _103  and  _106
REMARK   48  A    between atoms: _106  and  _107
REMARK   49  A    between atoms: _110  and  _112
REMARK   50  A    between atoms: _112  and  _113
REMARK   51  A    between atoms: _112  and  _115
REMARK   52  A    between atoms: _115  and  _116
REMARK   53  A    between atoms: _116  and  _117
REMARK   54  A    between atoms: _117  and  _118
REMARK   55  A    between atoms: _127  and  _129
REMARK   56  A    between atoms: _129  and  _130
REMARK   57  A    between atoms: _129  and  _132
REMARK   58  A    between atoms: _132  and  _133
REMARK   59  A    between atoms: _133  and  _134
REMARK   60  A    between atoms: _139  and  _141
REMARK   61  A    between atoms: _141  and  _142
REMARK   62  A    between atoms: _141  and  _144
REMARK   63  A    between atoms: _144  and  _145
REMARK   64  A    between atoms: _148  and  _150
REMARK   65  A    between atoms: _150  and  _151
REMARK   66  A    between atoms: _153  and  _155
REMARK   67  A    between atoms: _155  and  _156
REMARK   68  A    between atoms: _155  and  _158
REMARK   69  A    between atoms: _158  and  _159
REMARK   70  A    between atoms: _164  and  _166
REMARK   71  A    between atoms: _166  and  _167
REMARK   72  A    between atoms: _166  and  _169
REMARK   73  A    between atoms: _169  and  _170
REMARK   74  A    between atoms: _173  and  _175
REMARK   75  A    between atoms: _175  and  _176
REMARK   76  A    between atoms: _175  and  _178
REMARK   77  A    between atoms: _181  and  _183
REMARK   78  A    between atoms: _183  and  _184
REMARK   79  A    between atoms: _183  and  _186
REMARK   80  A    between atoms: _186  and  _187
REMARK   81  A    between atoms: _191  and  _192
REMARK   82  A    between atoms: _197  and  _199
REMARK   83  A    between atoms: _199  and  _200
REMARK   84  A    between atoms: _199  and  _202
REMARK   85  A    between atoms: _202  and  _203
REMARK   86  A    between atoms: _206  and  _208
REMARK   87  A    between atoms: _208  and  _209
REMARK   88  A    between atoms: _208  and  _211
REMARK   89  A    between atoms: _214  and  _216
REMARK   90  A    between atoms: _216  and  _217
REMARK   91  A    between atoms: _216  and  _219
REMARK   92  A    between atoms: _219  and  _220
REMARK   93  A    between atoms: _226  and  _228
REMARK   94  A    between atoms: _228  and  _229
REMARK   95  A    between atoms: _228  and  _231
REMARK   96  A    between atoms: _231  and  _232
REMARK   97  A    between atoms: _232  and  _233
REMARK   98  A    between atoms: _235  and  _237
REMARK   99  A    between atoms: _237  and  _238
REMARK  100  A    between atoms: _237  and  _240
REMARK  101  A    between atoms: _240  and  _241
REMARK  102  A    between atoms: _244  and  _246
REMARK  103  A    between atoms: _246  and  _247
REMARK  104  A    between atoms: _246  and  _249
REMARK  105  A    between atoms: _249  and  _250
REMARK  106  A    between atoms: _250  and  _251
REMARK  107  A    between atoms: _254  and  _256
REMARK  108  A    between atoms: _256  and  _257
REMARK  109  A    between atoms: _256  and  _259
REMARK  110  A    between atoms: _259  and  _260
REMARK  111  A    between atoms: _262  and  _264
REMARK  112  A    between atoms: _264  and  _265
REMARK  113  A    between atoms: _264  and  _267
REMARK  114  A    between atoms: _267  and  _268
REMARK  115  A    between atoms: _271  and  _273
REMARK  116  A    between atoms: _273  and  _274
REMARK  117  A    between atoms: _273  and  _276
REMARK  118  A    between atoms: _276  and  _277
REMARK  119  A    between atoms: _283  and  _285
REMARK  120  A    between atoms: _285  and  _286
REMARK  121  A    between atoms: _285  and  _288
REMARK  122  A    between atoms: _288  and  _289
REMARK  123  A    between atoms: _289  and  _290
REMARK  124  A    between atoms: _290  and  _291
REMARK  125  A    between atoms: _291  and  _292
REMARK  126  A    between atoms: _296  and  _298
REMARK  127  A    between atoms: _298  and  _299
REMARK  128  A    between atoms: _298  and  _301
REMARK  129  A    between atoms: _301  and  _302
REMARK  130  A    between atoms: _307  and  _309
REMARK  131  A    between atoms: _309  and  _310
REMARK  132  A    between atoms: _309  and  _312
REMARK  133  A    between atoms: _312  and  _313
REMARK  134  A    between atoms: _316  and  _318
REMARK  135  A    between atoms: _318  and  _319
REMARK  136  A    between atoms: _318  and  _321
REMARK  137  A    between atoms: _321  and  _322
REMARK  138  A    between atoms: _322  and  _323
REMARK  139  A    between atoms: _326  and  _328
REMARK  140  A    between atoms: _328  and  _329
REMARK  141  A    between atoms: _328  and  _331
REMARK  142  A    between atoms: _331  and  _332
REMARK  143  A    between atoms: _335  and  _337
REMARK  144  A    between atoms: _337  and  _338
REMARK  145  A    between atoms: _337  and  _340
REMARK  146  A    between atoms: _340  and  _341
REMARK  147  A    between atoms: _343  and  _345
REMARK  148  A    between atoms: _345  and  _346
REMARK  149  A    between atoms: _345  and  _348
REMARK  150  A    between atoms: _348  and  _349
REMARK  151  A    between atoms: _352  and  _354
REMARK  152  A    between atoms: _354  and  _355
REMARK  153  A    between atoms: _357  and  _359
REMARK  154  A    between atoms: _359  and  _360
REMARK  155  A    between atoms: _359  and  _362
REMARK  156  A    between atoms: _362  and  _363
REMARK  157  A    between atoms: _363  and  _364
REMARK  158  A    between atoms: _364  and  _365
REMARK  159  A    between atoms: _374  and  _376
REMARK  160  A    between atoms: _376  and  _377
REMARK  161  A    between atoms: _376  and  _379
REMARK  162  A    between atoms: _379  and  _380
REMARK  163  A    between atoms: _380  and  _381
REMARK  164  A    between atoms: _386  and  _388
REMARK  165  A    between atoms: _388  and  _389
REMARK  166  A    between atoms: _388  and  _391
REMARK  167  A    between atoms: _391  and  _392
REMARK  168  A    between atoms: _392  and  _393
REMARK  169  A    between atoms: _398  and  _400
REMARK  170  A    between atoms: _400  and  _401
REMARK  171  A    between atoms: _400  and  _403
REMARK  172  A    between atoms: _403  and  _404
REMARK  173  A    between atoms: _407  and  _409
REMARK  174  A    between atoms: _409  and  _410
REMARK  175  A    between atoms: _409  and  _412
REMARK  176  A    between atoms: _415  and  _417
REMARK  177  A    between atoms: _417  and  _418
REMARK  178  A    between atoms: _417  and  _420
REMARK  179  A    between atoms: _420  and  _421
REMARK  180  A    between atoms: _424  and  _426
REMARK  181  A    between atoms: _426  and  _427
REMARK  182  A    between atoms: _426  and  _429
REMARK  183  A    between atoms: _432  and  _434
REMARK  184  A    between atoms: _434  and  _435
REMARK  185  A    between atoms: _434  and  _437
REMARK  186  A    between atoms: _437  and  _438
REMARK  187  A    between atoms: _438  and  _439
REMARK  188  A    between atoms: _439  and  _440
REMARK  189  A    between atoms: _449  and  _451
REMARK  190  A    between atoms: _451  and  _452
REMARK  191  A    between atoms: _451  and  _454
REMARK  192  A    between atoms: _454  and  _455
REMARK  193  A    between atoms: _455  and  _456
REMARK  194  A    between atoms: _458  and  _460
REMARK  195  A    between atoms: _460  and  _461
REMARK  196  A    between atoms: _460  and  _463
REMARK  197  A    between atoms: _463  and  _464
REMARK  198  A    between atoms: _464  and  _465
REMARK  199  A    between atoms: _465  and  _466
REMARK  200  A    between atoms: _466  and  _467
REMARK  201  A    between atoms: _471  and  _473
REMARK  202  A    between atoms: _473  and  _474
REMARK  203  A    between atoms: _473  and  _476
REMARK  204  A    between atoms: _476  and  _477
REMARK  205  A    between atoms: _480  and  _482
REMARK  206  A    between atoms: _482  and  _483
REMARK  207  A    between atoms: _482  and  _485
REMARK  208  A    between atoms: _485  and  _486
REMARK  209  A    between atoms: _489  and  _491
REMARK  210  A    between atoms: _491  and  _492
REMARK  211  A    between atoms: _491  and  _494
REMARK  212  A    between atoms: _497  and  _499
REMARK  213  A    between atoms: _499  and  _500
REMARK  214  A    between atoms: _499  and  _502
REMARK  215  A    between atoms: _502  and  _503
REMARK  216  A    between atoms: _506  and  _508
REMARK  217  A    between atoms: _508  and  _509
REMARK  218  A    between atoms: _508  and  _511
REMARK  219  A    between atoms: _514  and  _516
REMARK  220  A    between atoms: _516  and  _517
REMARK  221  A    between atoms: _520  and  _522
REMARK  222  A    between atoms: _522  and  _523
REMARK  223  A    between atoms: _522  and  _525
REMARK  224  A    between atoms: _525  and  _526
REMARK  225  A    between atoms: _529  and  _531
REMARK  226  A    between atoms: _531  and  _532
REMARK  227  A    between atoms: _531  and  _534
REMARK  228  A    between atoms: _534  and  _535
REMARK  229  A    between atoms: _535  and  _536
REMARK  230  A    between atoms: _536  and  _537
REMARK  231  A    between atoms: _546  and  _548
REMARK  232  A    between atoms: _548  and  _549
REMARK  233  A    between atoms: _548  and  _551
REMARK  234  A    between atoms: _551  and  _552
REMARK  235  A    between atoms: _557  and  _559
REMARK  236  A    between atoms: _559  and  _560
REMARK  237  A    between atoms: _559  and  _562
REMARK  238  A    between atoms: _562  and  _563
REMARK  239  A    between atoms: _568  and  _569
REMARK                            x       y       z     vdW  Elec       q    Type
REMARK                         _______ _______ _______ _____ _____    ______ ____
ROOT
ATOM      1  CB  GLN A   1      14.002  30.289  16.713  0.00  0.00    +0.035 C 
ENDROOT
BRANCH   1   2
ATOM      2  CA  GLN A   1      14.563  29.987  18.108  0.00  0.00    +0.134 C 
BRANCH   2   3
ATOM      3  N   GLN A   1      15.685  29.075  18.039  0.00  0.00    -0.239 NA
ATOM      4  H   GLN A   1      15.511  28.098  17.729  0.00  0.00    +0.142 HD
ENDBRANCH   2   3
BRANCH   2   5
ATOM      5  C   GLN A   1      13.514  29.274  18.924  0.00  0.00    +0.224 C 
ATOM      6  O   GLN A   1      12.982  28.240  18.496  0.00  0.00    -0.287 OA
ENDBRANCH   2   5
ENDBRANCH   1   2
BRANCH   1   7
ATOM      7  CG  GLN A   1      14.657  31.464  16.041  0.00  0.00    +0.087 C 
BRANCH   7   8
ATOM      8  CD  GLN A   1      14.087  31.756  14.666  0.00  0.00    +0.219 C 
ATOM      9  NE2 GLN A   1      13.972  33.027  14.337  0.00  0.00    -0.329 N 
ATOM     10 HE21 GLN A   1      14.266  33.766  15.007  0.00  0.00    +0.145 HD
ATOM     11 HE22 GLN A   1      13.587  33.291  13.408  0.00  0.00    +0.145 HD
ATOM     12  OE1 GLN A   1      13.757  30.847  13.919  0.00  0.00    -0.275 OA
ENDBRANCH   7   8
ENDBRANCH   1   7
TORSDOF 5
REMARK  Name = ../refined-set-2016/1vyg/1vyg_pocket.pdb
REMARK  239 active torsions:
REMARK  status: ('A' for Active; 'I' for Inactive)
REMARK    1  A    between atoms: _1  and  _3
REMARK    2  A    between atoms: _3  and  _4
REMARK    3  A    between atoms: _3  and  _6
REMARK    4  A    between atoms: _6  and  _7
REMARK    5  A    between atoms: _10  and  _12
REMARK    6  A    between atoms: _12  and  _13
REMARK    7  A    between atoms: _12  and  _15
REMARK    8  A    between atoms: _15  and  _16
REMARK    9  A    between atoms: _16  and  _17
REMARK   10  A    between atoms: _20  and  _22
REMARK   11  A    between atoms: _22  and  _23
REMARK   12  A    between atoms: _22  and  _25
REMARK   13  A    between atoms: _25  and  _26
REMARK   14  A    between atoms: _28  and  _30
REMARK   15  A    between atoms: _30  and  _31
REMARK   16  A    between atoms: _30  and  _33
REMARK   17  A    between atoms: _33  and  _34
REMARK   18  A    between atoms: _40  and  _42
REMARK   19  A    between atoms: _42  and  _43
REMARK   20  A    between atoms: _42  and  _45
REMARK   21  A    between atoms: _48  and  _50
REMARK   22  A    between atoms: _50  and  _51
REMARK   23  A    between atoms: _50  and  _53
REMARK   24  A    between atoms: _53  and  _54
REMARK   25  A    between atoms: _54  and  _55
REMARK   26  A    between atoms: _57  and  _59
REMARK   27  A    between atoms: _59  and  _60
REMARK   28  A    between atoms: _59  and  _62
REMARK   29  A    between atoms: _62  and  _63
REMARK   30  A    between atoms: _65  and  _67
REMARK   31  A    between atoms: _67  and  _68
REMARK   32  A    between atoms: _67  and  _70
REMARK   33  A    between atoms: _70  and  _71
REMARK   34  A    between atoms: _74  and  _76
REMARK   35  A    between atoms: _76  and  _77
REMARK   36  A    between atoms: _79  and  _81
REMARK   37  A    between atoms: _81  and  _82
REMARK   38  A    between atoms: _81  and  _84
REMARK   39  A    between atoms: _87  and  _89
REMARK   40  A    between atoms: _89  and  _90
REMARK   41  A    between atoms: _89  and  _92
REMARK   42  A    between atoms: _92  and  _93
REMARK   43  A    between atoms: _95  and  _97
REMARK   44  A    between atoms: _97  and  _98
REMARK   45  A    between atoms: _101  and  _103
REMARK   46  A    between atoms: _103  and  _104
REMARK   47  A    between atoms: _103  and  _106
REMARK   48  A    between atoms: _106  and  _107
REMARK   49  A    between atoms: _110  and  _112
REMARK   50  A    between atoms: _112  and  _113
REMARK   51  A    between atoms: _112  and  _115
REMARK   52  A    between atoms: _115  and  _116
REMARK   53  A    between atoms: _116  and  _117
REMARK   54  A    between atoms: _117  and  _118
REMARK   55  A    between atoms: _127  and  _129
REMARK   56  A    between atoms: _129  and  _130
REMARK   57  A    between atoms: _129  and  _132
REMARK   58  A    between atoms: _132  and  _133
REMARK   59  A    between atoms: _133  and  _134
REMARK   60  A    between atoms: _139  and  _141
REMARK   61  A    between atoms: _141  and  _142
REMARK   62  A    between atoms: _141  and  _144
REMARK   63  A    between atoms: _144  and  _145
REMARK   64  A    between atoms: _148  and  _150
REMARK   65  A    between atoms: _150  and  _151
REMARK   66  A    between atoms: _153  and  _155
REMARK   67  A    between atoms: _155  and  _156
REMARK   68  A    between atoms: _155  and  _158
REMARK   69  A    between atoms: _158  and  _159
REMARK   70  A    between atoms: _164  and  _166
REMARK   71  A    between atoms: _166  and  _167
REMARK   72  A    between atoms: _166  and  _169
REMARK   73  A    between atoms: _169  and  _170
REMARK   74  A    between atoms: _173  and  _175
REMARK   75  A    between atoms: _175  and  _176
REMARK   76  A    between atoms: _175  and  _178
REMARK   77  A    between atoms: _181  and  _183
REMARK   78  A    between atoms: _183  and  _184
REMARK   79  A    between atoms: _183  and  _186
REMARK   80  A    between atoms: _186  and  _187
REMARK   81  A    between atoms: _191  and  _192
REMARK   82  A    between atoms: _197  and  _199
REMARK   83  A    between atoms: _199  and  _200
REMARK   84  A    between atoms: _199  and  _202
REMARK   85  A    between atoms: _202  and  _203
REMARK   86  A    between atoms: _206  and  _208
REMARK   87  A    between atoms: _208  and  _209
REMARK   88  A    between atoms: _208  and  _211
REMARK   89  A    between atoms: _214  and  _216
REMARK   90  A    between atoms: _216  and  _217
REMARK   91  A    between atoms: _216  and  _219
REMARK   92  A    between atoms: _219  and  _220
REMARK   93  A    between atoms: _226  and  _228
REMARK   94  A    between atoms: _228  and  _229
REMARK   95  A    between atoms: _228  and  _231
REMARK   96  A    between atoms: _231  and  _232
REMARK   97  A    between atoms: _232  and  _233
REMARK   98  A    between atoms: _235  and  _237
REMARK   99  A    between atoms: _237  and  _238
REMARK  100  A    between atoms: _237  and  _240
REMARK  101  A    between atoms: _240  and  _241
REMARK  102  A    between atoms: _244  and  _246
REMARK  103  A    between atoms: _246  and  _247
REMARK  104  A    between atoms: _246  and  _249
REMARK  105  A    between atoms: _249  and  _250
REMARK  106  A    between atoms: _250  and  _251
REMARK  107  A    between atoms: _254  and  _256
REMARK  108  A    between atoms: _256  and  _257
REMARK  109  A    between atoms: _256  and  _259
REMARK  110  A    between atoms: _259  and  _260
REMARK  111  A    between atoms: _262  and  _264
REMARK  112  A    between atoms: _264  and  _265
REMARK  113  A    between atoms: _264  and  _267
REMARK  114  A    between atoms: _267  and  _268
REMARK  115  A    between atoms: _271  and  _273
REMARK  116  A    between atoms: _273  and  _274
REMARK  117  A    between atoms: _273  and  _276
REMARK  118  A    between atoms: _276  and  _277
REMARK  119  A    between atoms: _283  and  _285
REMARK  120  A    between atoms: _285  and  _286
REMARK  121  A    between atoms: _285  and  _288
REMARK  122  A    between atoms: _288  and  _289
REMARK  123  A    between atoms: _289  and  _290
REMARK  124  A    between atoms: _290  and  _291
REMARK  125  A    between atoms: _291  and  _292
REMARK  126  A    between atoms: _296  and  _298
REMARK  127  A    between atoms: _298  and  _299
REMARK  128  A    between atoms: _298  and  _301
REMARK  129  A    between atoms: _301  and  _302
REMARK  130  A    between atoms: _307  and  _309
REMARK  131  A    between atoms: _309  and  _310
REMARK  132  A    between atoms: _309  and  _312
REMARK  133  A    between atoms: _312  and  _313
REMARK  134  A    between atoms: _316  and  _318
REMARK  135  A    between atoms: _318  and  _319
REMARK  136  A    between atoms: _318  and  _321
REMARK  137  A    between atoms: _321  and  _322
REMARK  138  A    between atoms: _322  and  _323
REMARK  139  A    between atoms: _326  and  _328
REMARK  140  A    between atoms: _328  and  _329
REMARK  141  A    between atoms: _328  and  _331
REMARK  142  A    between atoms: _331  and  _332
REMARK  143  A    between atoms: _335  and  _337
REMARK  144  A    between atoms: _337  and  _338
REMARK  145  A    between atoms: _337  and  _340
REMARK  146  A    between atoms: _340  and  _341
REMARK  147  A    between atoms: _343  and  _345
REMARK  148  A    between atoms: _345  and  _346
REMARK  149  A    between atoms: _345  and  _348
REMARK  150  A    between atoms: _348  and  _349
REMARK  151  A    between atoms: _352  and  _354
REMARK  152  A    between atoms: _354  and  _355
REMARK  153  A    between atoms: _357  and  _359
REMARK  154  A    between atoms: _359  and  _360
REMARK  155  A    between atoms: _359  and  _362
REMARK  156  A    between atoms: _362  and  _363
REMARK  157  A    between atoms: _363  and  _364
REMARK  158  A    between atoms: _364  and  _365
REMARK  159  A    between atoms: _374  and  _376
REMARK  160  A    between atoms: _376  and  _377
REMARK  161  A    between atoms: _376  and  _379
REMARK  162  A    between atoms: _379  and  _380
REMARK  163  A    between atoms: _380  and  _381
REMARK  164  A    between atoms: _386  and  _388
REMARK  165  A    between atoms: _388  and  _389
REMARK  166  A    between atoms: _388  and  _391
REMARK  167  A    between atoms: _391  and  _392
REMARK  168  A    between atoms: _392  and  _393
REMARK  169  A    between atoms: _398  and  _400
REMARK  170  A    between atoms: _400  and  _401
REMARK  171  A    between atoms: _400  and  _403
REMARK  172  A    between atoms: _403  and  _404
REMARK  173  A    between atoms: _407  and  _409
REMARK  174  A    between atoms: _409  and  _410
REMARK  175  A    between atoms: _409  and  _412
REMARK  176  A    between atoms: _415  and  _417
REMARK  177  A    between atoms: _417  and  _418
REMARK  178  A    between atoms: _417  and  _420
REMARK  179  A    between atoms: _420  and  _421
REMARK  180  A    between atoms: _424  and  _426
REMARK  181  A    between atoms: _426  and  _427
REMARK  182  A    between atoms: _426  and  _429
REMARK  183  A    between atoms: _432  and  _434
REMARK  184  A    between atoms: _434  and  _435
REMARK  185  A    between atoms: _434  and  _437
REMARK  186  A    between atoms: _437  and  _438
REMARK  187  A    between atoms: _438  and  _439
REMARK  188  A    between atoms: _439  and  _440
REMARK  189  A    between atoms: _449  and  _451
REMARK  190  A    between atoms: _451  and  _452
REMARK  191  A    between atoms: _451  and  _454
REMARK  192  A    between atoms: _454  and  _455
REMARK  193  A    between atoms: _455  and  _456
REMARK  194  A    between atoms: _458  and  _460
REMARK  195  A    between atoms: _460  and  _461
REMARK  196  A    between atoms: _460  and  _463
REMARK  197  A    between atoms: _463  and  _464
REMARK  198  A    between atoms: _464  and  _465
REMARK  199  A    between atoms: _465  and  _466
REMARK  200  A    between atoms: _466  and  _467
REMARK  201  A    between atoms: _471  and  _473
REMARK  202  A    between atoms: _473  and  _474
REMARK  203  A    between atoms: _473  and  _476
REMARK  204  A    between atoms: _476  and  _477
REMARK  205  A    between atoms: _480  and  _482
REMARK  206  A    between atoms: _482  and  _483
REMARK  207  A    between atoms: _482  and  _485
REMARK  208  A    between atoms: _485  and  _486
REMARK  209  A    between atoms: _489  and  _491
REMARK  210  A    between atoms: _491  and  _492
REMARK  211  A    between atoms: _491  and  _494
REMARK  212  A    between atoms: _497  and  _499
REMARK  213  A    between atoms: _499  and  _500
REMARK  214  A    between atoms: _499  and  _502
REMARK  215  A    between atoms: _502  and  _503
REMARK  216  A    between atoms: _506  and  _508
REMARK  217  A    between atoms: _508  and  _509
REMARK  218  A    between atoms: _508  and  _511
REMARK  219  A    between atoms: _514  and  _516
REMARK  220  A    between atoms: _516  and  _517
REMARK  221  A    between atoms: _520  and  _522
REMARK  222  A    between atoms: _522  and  _523
REMARK  223  A    between atoms: _522  and  _525
REMARK  224  A    between atoms: _525  and  _526
REMARK  225  A    between atoms: _529  and  _531
REMARK  226  A    between atoms: _531  and  _532
REMARK  227  A    between atoms: _531  and  _534
REMARK  228  A    between atoms: _534  and  _535
REMARK  229  A    between atoms: _535  and  _536
REMARK  230  A    between atoms: _536  and  _537
REMARK  231  A    between atoms: _546  and  _548
REMARK  232  A    between atoms: _548  and  _549
REMARK  233  A    between atoms: _548  and  _551
REMARK  234  A    between atoms: _551  and  _552
REMARK  235  A    between atoms: _557  and  _559
REMARK  236  A    between atoms: _559  and  _560
REMARK  237  A    between atoms: _559  and  _562
REMARK  238  A    between atoms: _562  and  _563
REMARK  239  A    between atoms: _568  and  _569
REMARK                            x       y       z     vdW  Elec       q    Type
REMARK                         _______ _______ _______ _____ _____    ______ ____
ROOT
ATOM      1  C   ILE A   3      20.557  27.214  12.120  0.00  0.00    +0.241 C 
ATOM      2  O   ILE A   3      21.182  28.173  12.587  0.00  0.00    -0.273 OA
ATOM      3  N   VAL A   4      21.135  26.171  11.548  0.00  0.00    -0.297 N 
ATOM      4  H   VAL A   4      20.546  25.361  11.268  0.00  0.00    +0.150 HD
ENDROOT
BRANCH   3   5
ATOM      5  CA  VAL A   4      22.557  26.120  11.299  0.00  0.00    +0.149 C 
BRANCH   5   6
ATOM      6  C   VAL A   4      22.739  26.836   9.968  0.00  0.00    +0.241 C 
ATOM      7  N   ARG A   5      23.580  27.876   9.974  0.00  0.00    -0.298 N 
ATOM      8  H   ARG A   5      23.876  28.248  10.899  0.00  0.00    +0.150 HD
ATOM      9  O   VAL A   4      22.046  26.516   9.002  0.00  0.00    -0.273 OA
BRANCH   7  10
ATOM     10  CA  ARG A   5      24.113  28.528   8.787  0.00  0.00    +0.137 C 
BRANCH  10  11
ATOM     11  C   ARG A   5      25.599  28.253   8.735  0.00  0.00    +0.227 C 
ATOM     12  O   ARG A   5      26.297  28.458   9.704  0.00  0.00    -0.286 OA
ENDBRANCH  10  11
BRANCH  10  13
ATOM     13  CB  ARG A   5      23.918  30.040   8.841  0.00  0.00    +0.031 C 
BRANCH  13  14
ATOM     14  CG  ARG A   5      22.464  30.477   8.989  0.00  0.00    +0.045 C 
BRANCH  14  15
ATOM     15  CD  ARG A   5      22.259  31.969   8.871  0.00  0.00    +0.174 C 
BRANCH  15  16
ATOM     16  NE  ARG A   5      20.847  32.251   8.705  0.00  0.00    -0.265 N 
ATOM     17  CZ  ARG A   5      19.958  32.238   9.702  0.00  0.00    +0.342 C 
ATOM     18  NH2 ARG A   5      20.319  32.032  10.961  0.00  0.00    -0.292 N 
ATOM     19 HH21 ARG A   5      19.601  32.028  11.714  0.00  0.00    +0.255 HD
ATOM     20 HH22 ARG A   5      21.320  31.874  11.196  0.00  0.00    +0.255 HD
ATOM     21  NH1 ARG A   5      18.688  32.462   9.437  0.00  0.00    -0.292 N 
ATOM     22 HH11 ARG A   5      17.987  32.454  10.205  0.00  0.00    +0.255 HD
ATOM     23 HH12 ARG A   5      18.386  32.647   8.459  0.00  0.00    +0.255 HD
ATOM     24  HE  ARG A   5      20.504  32.478   7.750  0.00  0.00    +0.259 HD
ENDBRANCH  15  16
ENDBRANCH  14  15
ENDBRANCH  13  14
ENDBRANCH  10  13
ENDBRANCH   7  10
ENDBRANCH   5   6
BRANCH   5  25
ATOM     25  CB  VAL A   4      23.078  24.644  11.302  0.00  0.00    +0.027 C 
ATOM     26  CG2 VAL A   4      22.658  23.920  12.606  0.00  0.00    +0.002 C 
ATOM     27  CG1 VAL A   4      24.592  24.564  11.168  0.00  0.00    +0.002 C 
ENDBRANCH   5  25
ENDBRANCH   3   5
BRANCH   1  28
ATOM     28  CA  ILE A   3      19.051  27.154  12.192  0.00  0.00    +0.149 C 
BRANCH  28  30
ATOM     29  C   VAL A   2      17.909  25.684  13.731  0.00  0.00    +0.241 C 
ATOM     30  N   ILE A   3      18.691  26.732  13.525  0.00  0.00    -0.297 N 
ATOM     31  H   ILE A   3      19.054  27.263  14.342  0.00  0.00    +0.150 HD
ATOM     32  O   VAL A   2      17.555  24.923  12.820  0.00  0.00    -0.273 OA
BRANCH  29  33
ATOM     33  CA  VAL A   2      17.486  25.426  15.169  0.00  0.00    +0.148 C 
BRANCH  33  36
ATOM     34  C   THR A   1      15.225  26.210  15.671  0.00  0.00    +0.241 C 
ATOM     35  O   THR A   1      15.621  27.224  16.187  0.00  0.00    -0.274 OA
ATOM     36  N   VAL A   2      16.042  25.266  15.227  0.00  0.00    -0.297 N 
ATOM     37  H   VAL A   2      15.630  24.367  14.904  0.00  0.00    +0.150 HD
BRANCH  34  38
ATOM     38  CA  THR A   1      13.727  25.961  15.514  0.00  0.00    +0.172 C 
BRANCH  38  39
ATOM     39  N   THR A   1      13.040  26.032  16.813  0.00  0.00    -0.236 NA
ATOM     40  H   THR A   1      12.788  26.968  17.191  0.00  0.00    +0.142 HD
ENDBRANCH  38  39
BRANCH  38  41
ATOM     41  CB  THR A   1      13.153  26.996  14.523  0.00  0.00    +0.135 C 
ATOM     42  CG2 THR A   1      13.629  26.728  13.085  0.00  0.00    +0.034 C 
BRANCH  41  43
ATOM     43  OG1 THR A   1      11.731  26.877  14.431  0.00  0.00    -0.383 OA
ATOM     44  HG1 THR A   1      11.385  27.549  13.791  0.00  0.00    +0.210 HD
ENDBRANCH  41  43
ENDBRANCH  38  41
ENDBRANCH  34  38
ENDBRANCH  33  36
BRANCH  33  45
ATOM     45  CB  VAL A   2      18.199  24.153  15.625  0.00  0.00    +0.027 C 
ATOM     46  CG2 VAL A   2      17.765  23.790  17.041  0.00  0.00    +0.002 C 
ATOM     47  CG1 VAL A   2      19.743  24.338  15.534  0.00  0.00    +0.002 C 
ENDBRANCH  33  45
ENDBRANCH  29  33
ENDBRANCH  28  30
BRANCH  28  48
ATOM     48  CB  ILE A   3      18.432  28.525  11.879  0.00  0.00    +0.027 C 
ATOM     49  CG2 ILE A   3      18.837  29.011  10.528  0.00  0.00    +0.002 C 
BRANCH  48  50
ATOM     50  CG1 ILE A   3      16.913  28.449  11.925  0.00  0.00    +0.002 C 
ATOM     51  CD1 ILE A   3      16.289  29.625  12.605  0.00  0.00    +0.000 C 
ENDBRANCH  48  50
ENDBRANCH  28  48
ENDBRANCH   1  28
TORSDOF 20
REMARK  Name = ../refined-set-2016/1vyg/1vyg_pocket.pdb
REMARK  239 active torsions:
REMARK  status: ('A' for Active; 'I' for Inactive)
REMARK    1  A    between atoms: _1  and  _3
REMARK    2  A    between atoms: _3  and  _4
REMARK    3  A    between atoms: _3  and  _6
REMARK    4  A    between atoms: _6  and  _7
REMARK    5  A    between atoms: _10  and  _12
REMARK    6  A    between atoms: _12  and  _13
REMARK    7  A    between atoms: _12  and  _15
REMARK    8  A    between atoms: _15  and  _16
REMARK    9  A    between atoms: _16  and  _17
REMARK   10  A    between atoms: _20  and  _22
REMARK   11  A    between atoms: _22  and  _23
REMARK   12  A    between atoms: _22  and  _25
REMARK   13  A    between atoms: _25  and  _26
REMARK   14  A    between atoms: _28  and  _30
REMARK   15  A    between atoms: _30  and  _31
REMARK   16  A    between atoms: _30  and  _33
REMARK   17  A    between atoms: _33  and  _34
REMARK   18  A    between atoms: _40  and  _42
REMARK   19  A    between atoms: _42  and  _43
REMARK   20  A    between atoms: _42  and  _45
REMARK   21  A    between atoms: _48  and  _50
REMARK   22  A    between atoms: _50  and  _51
REMARK   23  A    between atoms: _50  and  _53
REMARK   24  A    between atoms: _53  and  _54
REMARK   25  A    between atoms: _54  and  _55
REMARK   26  A    between atoms: _57  and  _59
REMARK   27  A    between atoms: _59  and  _60
REMARK   28  A    between atoms: _59  and  _62
REMARK   29  A    between atoms: _62  and  _63
REMARK   30  A    between atoms: _65  and  _67
REMARK   31  A    between atoms: _67  and  _68
REMARK   32  A    between atoms: _67  and  _70
REMARK   33  A    between atoms: _70  and  _71
REMARK   34  A    between atoms: _74  and  _76
REMARK   35  A    between atoms: _76  and  _77
REMARK   36  A    between atoms: _79  and  _81
REMARK   37  A    between atoms: _81  and  _82
REMARK   38  A    between atoms: _81  and  _84
REMARK   39  A    between atoms: _87  and  _89
REMARK   40  A    between atoms: _89  and  _90
REMARK   41  A    between atoms: _89  and  _92
REMARK   42  A    between atoms: _92  and  _93
REMARK   43  A    between atoms: _95  and  _97
REMARK   44  A    between atoms: _97  and  _98
REMARK   45  A    between atoms: _101  and  _103
REMARK   46  A    between atoms: _103  and  _104
REMARK   47  A    between atoms: _103  and  _106
REMARK   48  A    between atoms: _106  and  _107
REMARK   49  A    between atoms: _110  and  _112
REMARK   50  A    between atoms: _112  and  _113
REMARK   51  A    between atoms: _112  and  _115
REMARK   52  A    between atoms: _115  and  _116
REMARK   53  A    between atoms: _116  and  _117
REMARK   54  A    between atoms: _117  and  _118
REMARK   55  A    between atoms: _127  and  _129
REMARK   56  A    between atoms: _129  and  _130
REMARK   57  A    between atoms: _129  and  _132
REMARK   58  A    between atoms: _132  and  _133
REMARK   59  A    between atoms: _133  and  _134
REMARK   60  A    between atoms: _139  and  _141
REMARK   61  A    between atoms: _141  and  _142
REMARK   62  A    between atoms: _141  and  _144
REMARK   63  A    between atoms: _144  and  _145
REMARK   64  A    between atoms: _148  and  _150
REMARK   65  A    between atoms: _150  and  _151
REMARK   66  A    between atoms: _153  and  _155
REMARK   67  A    between atoms: _155  and  _156
REMARK   68  A    between atoms: _155  and  _158
REMARK   69  A    between atoms: _158  and  _159
REMARK   70  A    between atoms: _164  and  _166
REMARK   71  A    between atoms: _166  and  _167
REMARK   72  A    between atoms: _166  and  _169
REMARK   73  A    between atoms: _169  and  _170
REMARK   74  A    between atoms: _173  and  _175
REMARK   75  A    between atoms: _175  and  _176
REMARK   76  A    between atoms: _175  and  _178
REMARK   77  A    between atoms: _181  and  _183
REMARK   78  A    between atoms: _183  and  _184
REMARK   79  A    between atoms: _183  and  _186
REMARK   80  A    between atoms: _186  and  _187
REMARK   81  A    between atoms: _191  and  _192
REMARK   82  A    between atoms: _197  and  _199
REMARK   83  A    between atoms: _199  and  _200
REMARK   84  A    between atoms: _199  and  _202
REMARK   85  A    between atoms: _202  and  _203
REMARK   86  A    between atoms: _206  and  _208
REMARK   87  A    between atoms: _208  and  _209
REMARK   88  A    between atoms: _208  and  _211
REMARK   89  A    between atoms: _214  and  _216
REMARK   90  A    between atoms: _216  and  _217
REMARK   91  A    between atoms: _216  and  _219
REMARK   92  A    between atoms: _219  and  _220
REMARK   93  A    between atoms: _226  and  _228
REMARK   94  A    between atoms: _228  and  _229
REMARK   95  A    between atoms: _228  and  _231
REMARK   96  A    between atoms: _231  and  _232
REMARK   97  A    between atoms: _232  and  _233
REMARK   98  A    between atoms: _235  and  _237
REMARK   99  A    between atoms: _237  and  _238
REMARK  100  A    between atoms: _237  and  _240
REMARK  101  A    between atoms: _240  and  _241
REMARK  102  A    between atoms: _244  and  _246
REMARK  103  A    between atoms: _246  and  _247
REMARK  104  A    between atoms: _246  and  _249
REMARK  105  A    between atoms: _249  and  _250
REMARK  106  A    between atoms: _250  and  _251
REMARK  107  A    between atoms: _254  and  _256
REMARK  108  A    between atoms: _256  and  _257
REMARK  109  A    between atoms: _256  and  _259
REMARK  110  A    between atoms: _259  and  _260
REMARK  111  A    between atoms: _262  and  _264
REMARK  112  A    between atoms: _264  and  _265
REMARK  113  A    between atoms: _264  and  _267
REMARK  114  A    between atoms: _267  and  _268
REMARK  115  A    between atoms: _271  and  _273
REMARK  116  A    between atoms: _273  and  _274
REMARK  117  A    between atoms: _273  and  _276
REMARK  118  A    between atoms: _276  and  _277
REMARK  119  A    between atoms: _283  and  _285
REMARK  120  A    between atoms: _285  and  _286
REMARK  121  A    between atoms: _285  and  _288
REMARK  122  A    between atoms: _288  and  _289
REMARK  123  A    between atoms: _289  and  _290
REMARK  124  A    between atoms: _290  and  _291
REMARK  125  A    between atoms: _291  and  _292
REMARK  126  A    between atoms: _296  and  _298
REMARK  127  A    between atoms: _298  and  _299
REMARK  128  A    between atoms: _298  and  _301
REMARK  129  A    between atoms: _301  and  _302
REMARK  130  A    between atoms: _307  and  _309
REMARK  131  A    between atoms: _309  and  _310
REMARK  132  A    between atoms: _309  and  _312
REMARK  133  A    between atoms: _312  and  _313
REMARK  134  A    between atoms: _316  and  _318
REMARK  135  A    between atoms: _318  and  _319
REMARK  136  A    between atoms: _318  and  _321
REMARK  137  A    between atoms: _321  and  _322
REMARK  138  A    between atoms: _322  and  _323
REMARK  139  A    between atoms: _326  and  _328
REMARK  140  A    between atoms: _328  and  _329
REMARK  141  A    between atoms: _328  and  _331
REMARK  142  A    between atoms: _331  and  _332
REMARK  143  A    between atoms: _335  and  _337
REMARK  144  A    between atoms: _337  and  _338
REMARK  145  A    between atoms: _337  and  _340
REMARK  146  A    between atoms: _340  and  _341
REMARK  147  A    between atoms: _343  and  _345
REMARK  148  A    between atoms: _345  and  _346
REMARK  149  A    between atoms: _345  and  _348
REMARK  150  A    between atoms: _348  and  _349
REMARK  151  A    between atoms: _352  and  _354
REMARK  152  A    between atoms: _354  and  _355
REMARK  153  A    between atoms: _357  and  _359
REMARK  154  A    between atoms: _359  and  _360
REMARK  155  A    between atoms: _359  and  _362
REMARK  156  A    between atoms: _362  and  _363
REMARK  157  A    between atoms: _363  and  _364
REMARK  158  A    between atoms: _364  and  _365
REMARK  159  A    between atoms: _374  and  _376
REMARK  160  A    between atoms: _376  and  _377
REMARK  161  A    between atoms: _376  and  _379
REMARK  162  A    between atoms: _379  and  _380
REMARK  163  A    between atoms: _380  and  _381
REMARK  164  A    between atoms: _386  and  _388
REMARK  165  A    between atoms: _388  and  _389
REMARK  166  A    between atoms: _388  and  _391
REMARK  167  A    between atoms: _391  and  _392
REMARK  168  A    between atoms: _392  and  _393
REMARK  169  A    between atoms: _398  and  _400
REMARK  170  A    between atoms: _400  and  _401
REMARK  171  A    between atoms: _400  and  _403
REMARK  172  A    between atoms: _403  and  _404
REMARK  173  A    between atoms: _407  and  _409
REMARK  174  A    between atoms: _409  and  _410
REMARK  175  A    between atoms: _409  and  _412
REMARK  176  A    between atoms: _415  and  _417
REMARK  177  A    between atoms: _417  and  _418
REMARK  178  A    between atoms: _417  and  _420
REMARK  179  A    between atoms: _420  and  _421
REMARK  180  A    between atoms: _424  and  _426
REMARK  181  A    between atoms: _426  and  _427
REMARK  182  A    between atoms: _426  and  _429
REMARK  183  A    between atoms: _432  and  _434
REMARK  184  A    between atoms: _434  and  _435
REMARK  185  A    between atoms: _434  and  _437
REMARK  186  A    between atoms: _437  and  _438
REMARK  187  A    between atoms: _438  and  _439
REMARK  188  A    between atoms: _439  and  _440
REMARK  189  A    between atoms: _449  and  _451
REMARK  190  A    between atoms: _451  and  _452
REMARK  191  A    between atoms: _451  and  _454
REMARK  192  A    between atoms: _454  and  _455
REMARK  193  A    between atoms: _455  and  _456
REMARK  194  A    between atoms: _458  and  _460
REMARK  195  A    between atoms: _460  and  _461
REMARK  196  A    between atoms: _460  and  _463
REMARK  197  A    between atoms: _463  and  _464
REMARK  198  A    between atoms: _464  and  _465
REMARK  199  A    between atoms: _465  and  _466
REMARK  200  A    between atoms: _466  and  _467
REMARK  201  A    between atoms: _471  and  _473
REMARK  202  A    between atoms: _473  and  _474
REMARK  203  A    between atoms: _473  and  _476
REMARK  204  A    between atoms: _476  and  _477
REMARK  205  A    between atoms: _480  and  _482
REMARK  206  A    between atoms: _482  and  _483
REMARK  207  A    between atoms: _482  and  _485
REMARK  208  A    between atoms: _485  and  _486
REMARK  209  A    between atoms: _489  and  _491
REMARK  210  A    between atoms: _491  and  _492
REMARK  211  A    between atoms: _491  and  _494
REMARK  212  A    between atoms: _497  and  _499
REMARK  213  A    between atoms: _499  and  _500
REMARK  214  A    between atoms: _499  and  _502
REMARK  215  A    between atoms: _502  and  _503
REMARK  216  A    between atoms: _506  and  _508
REMARK  217  A    between atoms: _508  and  _509
REMARK  218  A    between atoms: _508  and  _511
REMARK  219  A    between atoms: _514  and  _516
REMARK  220  A    between atoms: _516  and  _517
REMARK  221  A    between atoms: _520  and  _522
REMARK  222  A    between atoms: _522  and  _523
REMARK  223  A    between atoms: _522  and  _525
REMARK  224  A    between atoms: _525  and  _526
REMARK  225  A    between atoms: _529  and  _531
REMARK  226  A    between atoms: _531  and  _532
REMARK  227  A    between atoms: _531  and  _534
REMARK  228  A    between atoms: _534  and  _535
REMARK  229  A    between atoms: _535  and  _536
REMARK  230  A    between atoms: _536  and  _537
REMARK  231  A    between atoms: _546  and  _548
REMARK  232  A    between atoms: _548  and  _549
REMARK  233  A    between atoms: _548  and  _551
REMARK  234  A    between atoms: _551  and  _552
REMARK  235  A    between atoms: _557  and  _559
REMARK  236  A    between atoms: _559  and  _560
REMARK  237  A    between atoms: _559  and  _562
REMARK  238  A    between atoms: _562  and  _563
REMARK  239  A    between atoms: _568  and  _569
REMARK                            x       y       z     vdW  Elec       q    Type
REMARK                         _______ _______ _______ _____ _____    ______ ____
ROOT
ATOM      1  C   THR A   3      20.332  25.802   6.284  0.00  0.00    +0.243 C 
ATOM      2  N   THR A   4      20.644  25.072   7.347  0.00  0.00    -0.295 N 
ATOM      3  H   THR A   4      21.472  25.342   7.916  0.00  0.00    +0.150 HD
ATOM      4  O   THR A   3      19.481  25.481   5.490  0.00  0.00    -0.273 OA
ENDROOT
BRANCH   1   5
ATOM      5  CA  THR A   3      21.135  27.058   6.064  0.00  0.00    +0.176 C 
BRANCH   5   8
ATOM      6  C   LYS A   2      23.267  26.642   4.977  0.00  0.00    +0.241 C 
ATOM      7  O   LYS A   2      23.902  26.724   6.008  0.00  0.00    -0.273 OA
ATOM      8  N   THR A   3      21.966  26.810   4.908  0.00  0.00    -0.295 N 
ATOM      9  H   THR A   3      21.511  26.762   3.974  0.00  0.00    +0.150 HD
BRANCH   6  10
ATOM     10  CA  LYS A   2      23.942  26.322   3.675  0.00  0.00    +0.149 C 
BRANCH  10  12
ATOM     11  C   MET A   1      24.840  28.370   2.759  0.00  0.00    +0.238 C 
ATOM     12  N   LYS A   2      24.990  27.291   3.512  0.00  0.00    -0.297 N 
ATOM     13  H   LYS A   2      25.895  27.140   4.001  0.00  0.00    +0.150 HD
ATOM     14  O   MET A   1      23.879  28.581   2.030  0.00  0.00    -0.274 OA
BRANCH  11  15
ATOM     15  CA  MET A   1      25.952  29.337   2.781  0.00  0.00    +0.146 C 
BRANCH  15  16
ATOM     16  N   MET A   1      26.306  29.416   1.382  0.00  0.00    -0.238 NA
ATOM     17  H   MET A   1      25.650  29.855   0.704  0.00  0.00    +0.142 HD
ENDBRANCH  15  16
BRANCH  15  18
ATOM     18  CB  MET A   1      25.471  30.665   3.325  0.00  0.00    +0.038 C 
BRANCH  18  19
ATOM     19  CG  MET A   1      24.864  30.562   4.724  0.00  0.00    +0.060 C 
BRANCH  19  20
ATOM     20  SD  MET A   1      24.715  32.173   5.391  0.00  0.00    -0.139 S 
ATOM     21  CE  MET A   1      23.058  32.671   4.633  0.00  0.00    +0.069 C 
ENDBRANCH  19  20
ENDBRANCH  18  19
ENDBRANCH  15  18
ENDBRANCH  11  15
ENDBRANCH  10  12
BRANCH  10  22
ATOM     22  CB  LYS A   2      24.490  24.898   3.703  0.00  0.00    +0.029 C 
BRANCH  22  23
ATOM     23  CG  LYS A   2      23.378  23.833   3.804  0.00  0.00    +0.000 C 
BRANCH  23  24
ATOM     24  CD  LYS A   2      23.872  22.365   3.724  0.00  0.00    -0.024 C 
BRANCH  24  25
ATOM     25  CE  LYS A   2      25.018  22.063   4.674  0.00  0.00    -0.086 C 
BRANCH  25  26
ATOM     26  NZ  LYS A   2      24.946  20.667   5.150  0.00  0.00    +0.380 N 
ATOM     27  HZ1 LYS A   2      25.738  20.482   5.798  0.00  0.00    -0.089 HD
ATOM     28  HZ2 LYS A   2      24.046  20.518   5.649  0.00  0.00    -0.089 HD
ATOM     29  HZ3 LYS A   2      25.003  20.021   4.337  0.00  0.00    -0.089 HD
ENDBRANCH  25  26
ENDBRANCH  24  25
ENDBRANCH  23  24
ENDBRANCH  22  23
ENDBRANCH  10  22
ENDBRANCH   6  10
ENDBRANCH   5   8
BRANCH   5  30
ATOM     30  CB  THR A   3      20.201  28.229   5.809  0.00  0.00    +0.137 C 
ATOM     31  CG2 THR A   3      19.237  28.429   6.979  0.00  0.00    +0.034 C 
BRANCH  30  32
ATOM     32  OG1 THR A   3      20.961  29.443   5.755  0.00  0.00    -0.382 OA
ATOM     33  HG1 THR A   3      20.352  30.205   5.589  0.00  0.00    +0.210 HD
ENDBRANCH  30  32
ENDBRANCH   5  30
ENDBRANCH   1   5
BRANCH   2  34
ATOM     34  CA  THR A   4      19.876  23.918   7.741  0.00  0.00    +0.176 C 
BRANCH  34  35
ATOM     35  C   THR A   4      18.866  24.382   8.766  0.00  0.00    +0.243 C 
ATOM     36  O   THR A   4      19.228  25.050   9.696  0.00  0.00    -0.273 OA
ATOM     37  N   VAL A   5      17.592  24.047   8.577  0.00  0.00    -0.297 N 
ATOM     38  H   VAL A   5      17.323  23.509   7.728  0.00  0.00    +0.150 HD
BRANCH  37  39
ATOM     39  CA  VAL A   5      16.569  24.424   9.544  0.00  0.00    +0.149 C 
BRANCH  39  40
ATOM     40  C   VAL A   5      15.862  23.180  10.094  0.00  0.00    +0.241 C 
ATOM     41  N   THR A   6      15.846  23.048  11.414  0.00  0.00    -0.295 N 
ATOM     42  H   THR A   6      16.179  23.838  12.003  0.00  0.00    +0.150 HD
ATOM     43  O   VAL A   5      15.350  22.372   9.351  0.00  0.00    -0.273 OA
BRANCH  41  44
ATOM     44  CA  THR A   6      15.379  21.836  12.064  0.00  0.00    +0.176 C 
BRANCH  44  45
ATOM     45  C   THR A   6      14.341  22.166  13.136  0.00  0.00    +0.243 C 
ATOM     46  O   THR A   6      14.598  22.946  14.048  0.00  0.00    -0.273 OA
ATOM     47  N   VAL A   7      13.151  21.606  12.975  0.00  0.00    -0.298 N 
ATOM     48  H   VAL A   7      12.933  21.135  12.074  0.00  0.00    +0.150 HD
BRANCH  47  49
ATOM     49  CA  VAL A   7      12.148  21.630  14.012  0.00  0.00    +0.137 C 
BRANCH  49  50
ATOM     50  CB  VAL A   7      10.861  22.323  13.546  0.00  0.00    +0.026 C 
ATOM     51  CG2 VAL A   7       9.875  22.458  14.733  0.00  0.00    +0.002 C 
ATOM     52  CG1 VAL A   7      11.190  23.689  12.942  0.00  0.00    +0.002 C 
ENDBRANCH  49  50
BRANCH  49  53
ATOM     53  C   VAL A   7      11.864  20.189  14.396  0.00  0.00    +0.227 C 
ATOM     54  O   VAL A   7      11.210  19.449  13.663  0.00  0.00    -0.286 OA
ENDBRANCH  49  53
ENDBRANCH  47  49
ENDBRANCH  44  45
BRANCH  44  55
ATOM     55  CB  THR A   6      16.573  21.073  12.673  0.00  0.00    +0.137 C 
ATOM     56  CG2 THR A   6      16.239  19.599  12.864  0.00  0.00    +0.034 C 
BRANCH  55  57
ATOM     57  OG1 THR A   6      17.655  21.048  11.735  0.00  0.00    -0.382 OA
ATOM     58  HG1 THR A   6      17.929  21.976  11.524  0.00  0.00    +0.210 HD
ENDBRANCH  55  57
ENDBRANCH  44  55
ENDBRANCH  41  44
ENDBRANCH  39  40
BRANCH  39  59
ATOM     59  CB  VAL A   5      15.563  25.422   8.960  0.00  0.00    +0.027 C 
ATOM     60  CG2 VAL A   5      14.724  26.006  10.065  0.00  0.00    +0.002 C 
ATOM     61  CG1 VAL A   5      16.293  26.540   8.221  0.00  0.00    +0.002 C 
ENDBRANCH  39  59
ENDBRANCH  37  39
ENDBRANCH  34  35
BRANCH  34  62
ATOM     62  CB  THR A   4      20.807  22.874   8.337  0.00  0.00    +0.137 C 
ATOM     63  CG2 THR A   4      20.118  21.553   8.449  0.00  0.00    +0.034 C 
BRANCH  62  64
ATOM     64  OG1 THR A   4      21.912  22.649   7.447  0.00  0.00    -0.382 OA
ATOM     65  HG1 THR A   4      22.407  23.496   7.317  0.00  0.00    +0.210 HD
ENDBRANCH  62  64
ENDBRANCH  34  62
ENDBRANCH   2  34
TORSDOF 30
REMARK  Name = ../refined-set-2016/1vyg/1vyg_pocket.pdb
REMARK  239 active torsions:
REMARK  status: ('A' for Active; 'I' for Inactive)
REMARK    1  A    between atoms: _1  and  _3
REMARK    2  A    between atoms: _3  and  _4
REMARK    3  A    between atoms: _3  and  _6
REMARK    4  A    between atoms: _6  and  _7
REMARK    5  A    between atoms: _10  and  _12
REMARK    6  A    between atoms: _12  and  _13
REMARK    7  A    between atoms: _12  and  _15
REMARK    8  A    between atoms: _15  and  _16
REMARK    9  A    between atoms: _16  and  _17
REMARK   10  A    between atoms: _20  and  _22
REMARK   11  A    between atoms: _22  and  _23
REMARK   12  A    between atoms: _22  and  _25
REMARK   13  A    between atoms: _25  and  _26
REMARK   14  A    between atoms: _28  and  _30
REMARK   15  A    between atoms: _30  and  _31
REMARK   16  A    between atoms: _30  and  _33
REMARK   17  A    between atoms: _33  and  _34
REMARK   18  A    between atoms: _40  and  _42
REMARK   19  A    between atoms: _42  and  _43
REMARK   20  A    between atoms: _42  and  _45
REMARK   21  A    between atoms: _48  and  _50
REMARK   22  A    between atoms: _50  and  _51
REMARK   23  A    between atoms: _50  and  _53
REMARK   24  A    between atoms: _53  and  _54
REMARK   25  A    between atoms: _54  and  _55
REMARK   26  A    between atoms: _57  and  _59
REMARK   27  A    between atoms: _59  and  _60
REMARK   28  A    between atoms: _59  and  _62
REMARK   29  A    between atoms: _62  and  _63
REMARK   30  A    between atoms: _65  and  _67
REMARK   31  A    between atoms: _67  and  _68
REMARK   32  A    between atoms: _67  and  _70
REMARK   33  A    between atoms: _70  and  _71
REMARK   34  A    between atoms: _74  and  _76
REMARK   35  A    between atoms: _76  and  _77
REMARK   36  A    between atoms: _79  and  _81
REMARK   37  A    between atoms: _81  and  _82
REMARK   38  A    between atoms: _81  and  _84
REMARK   39  A    between atoms: _87  and  _89
REMARK   40  A    between atoms: _89  and  _90
REMARK   41  A    between atoms: _89  and  _92
REMARK   42  A    between atoms: _92  and  _93
REMARK   43  A    between atoms: _95  and  _97
REMARK   44  A    between atoms: _97  and  _98
REMARK   45  A    between atoms: _101  and  _103
REMARK   46  A    between atoms: _103  and  _104
REMARK   47  A    between atoms: _103  and  _106
REMARK   48  A    between atoms: _106  and  _107
REMARK   49  A    between atoms: _110  and  _112
REMARK   50  A    between atoms: _112  and  _113
REMARK   51  A    between atoms: _112  and  _115
REMARK   52  A    between atoms: _115  and  _116
REMARK   53  A    between atoms: _116  and  _117
REMARK   54  A    between atoms: _117  and  _118
REMARK   55  A    between atoms: _127  and  _129
REMARK   56  A    between atoms: _129  and  _130
REMARK   57  A    between atoms: _129  and  _132
REMARK   58  A    between atoms: _132  and  _133
REMARK   59  A    between atoms: _133  and  _134
REMARK   60  A    between atoms: _139  and  _141
REMARK   61  A    between atoms: _141  and  _142
REMARK   62  A    between atoms: _141  and  _144
REMARK   63  A    between atoms: _144  and  _145
REMARK   64  A    between atoms: _148  and  _150
REMARK   65  A    between atoms: _150  and  _151
REMARK   66  A    between atoms: _153  and  _155
REMARK   67  A    between atoms: _155  and  _156
REMARK   68  A    between atoms: _155  and  _158
REMARK   69  A    between atoms: _158  and  _159
REMARK   70  A    between atoms: _164  and  _166
REMARK   71  A    between atoms: _166  and  _167
REMARK   72  A    between atoms: _166  and  _169
REMARK   73  A    between atoms: _169  and  _170
REMARK   74  A    between atoms: _173  and  _175
REMARK   75  A    between atoms: _175  and  _176
REMARK   76  A    between atoms: _175  and  _178
REMARK   77  A    between atoms: _181  and  _183
REMARK   78  A    between atoms: _183  and  _184
REMARK   79  A    between atoms: _183  and  _186
REMARK   80  A    between atoms: _186  and  _187
REMARK   81  A    between atoms: _191  and  _192
REMARK   82  A    between atoms: _197  and  _199
REMARK   83  A    between atoms: _199  and  _200
REMARK   84  A    between atoms: _199  and  _202
REMARK   85  A    between atoms: _202  and  _203
REMARK   86  A    between atoms: _206  and  _208
REMARK   87  A    between atoms: _208  and  _209
REMARK   88  A    between atoms: _208  and  _211
REMARK   89  A    between atoms: _214  and  _216
REMARK   90  A    between atoms: _216  and  _217
REMARK   91  A    between atoms: _216  and  _219
REMARK   92  A    between atoms: _219  and  _220
REMARK   93  A    between atoms: _226  and  _228
REMARK   94  A    between atoms: _228  and  _229
REMARK   95  A    between atoms: _228  and  _231
REMARK   96  A    between atoms: _231  and  _232
REMARK   97  A    between atoms: _232  and  _233
REMARK   98  A    between atoms: _235  and  _237
REMARK   99  A    between atoms: _237  and  _238
REMARK  100  A    between atoms: _237  and  _240
REMARK  101  A    between atoms: _240  and  _241
REMARK  102  A    between atoms: _244  and  _246
REMARK  103  A    between atoms: _246  and  _247
REMARK  104  A    between atoms: _246  and  _249
REMARK  105  A    between atoms: _249  and  _250
REMARK  106  A    between atoms: _250  and  _251
REMARK  107  A    between atoms: _254  and  _256
REMARK  108  A    between atoms: _256  and  _257
REMARK  109  A    between atoms: _256  and  _259
REMARK  110  A    between atoms: _259  and  _260
REMARK  111  A    between atoms: _262  and  _264
REMARK  112  A    between atoms: _264  and  _265
REMARK  113  A    between atoms: _264  and  _267
REMARK  114  A    between atoms: _267  and  _268
REMARK  115  A    between atoms: _271  and  _273
REMARK  116  A    between atoms: _273  and  _274
REMARK  117  A    between atoms: _273  and  _276
REMARK  118  A    between atoms: _276  and  _277
REMARK  119  A    between atoms: _283  and  _285
REMARK  120  A    between atoms: _285  and  _286
REMARK  121  A    between atoms: _285  and  _288
REMARK  122  A    between atoms: _288  and  _289
REMARK  123  A    between atoms: _289  and  _290
REMARK  124  A    between atoms: _290  and  _291
REMARK  125  A    between atoms: _291  and  _292
REMARK  126  A    between atoms: _296  and  _298
REMARK  127  A    between atoms: _298  and  _299
REMARK  128  A    between atoms: _298  and  _301
REMARK  129  A    between atoms: _301  and  _302
REMARK  130  A    between atoms: _307  and  _309
REMARK  131  A    between atoms: _309  and  _310
REMARK  132  A    between atoms: _309  and  _312
REMARK  133  A    between atoms: _312  and  _313
REMARK  134  A    between atoms: _316  and  _318
REMARK  135  A    between atoms: _318  and  _319
REMARK  136  A    between atoms: _318  and  _321
REMARK  137  A    between atoms: _321  and  _322
REMARK  138  A    between atoms: _322  and  _323
REMARK  139  A    between atoms: _326  and  _328
REMARK  140  A    between atoms: _328  and  _329
REMARK  141  A    between atoms: _328  and  _331
REMARK  142  A    between atoms: _331  and  _332
REMARK  143  A    between atoms: _335  and  _337
REMARK  144  A    between atoms: _337  and  _338
REMARK  145  A    between atoms: _337  and  _340
REMARK  146  A    between atoms: _340  and  _341
REMARK  147  A    between atoms: _343  and  _345
REMARK  148  A    between atoms: _345  and  _346
REMARK  149  A    between atoms: _345  and  _348
REMARK  150  A    between atoms: _348  and  _349
REMARK  151  A    between atoms: _352  and  _354
REMARK  152  A    between atoms: _354  and  _355
REMARK  153  A    between atoms: _357  and  _359
REMARK  154  A    between atoms: _359  and  _360
REMARK  155  A    between atoms: _359  and  _362
REMARK  156  A    between atoms: _362  and  _363
REMARK  157  A    between atoms: _363  and  _364
REMARK  158  A    between atoms: _364  and  _365
REMARK  159  A    between atoms: _374  and  _376
REMARK  160  A    between atoms: _376  and  _377
REMARK  161  A    between atoms: _376  and  _379
REMARK  162  A    between atoms: _379  and  _380
REMARK  163  A    between atoms: _380  and  _381
REMARK  164  A    between atoms: _386  and  _388
REMARK  165  A    between atoms: _388  and  _389
REMARK  166  A    between atoms: _388  and  _391
REMARK  167  A    between atoms: _391  and  _392
REMARK  168  A    between atoms: _392  and  _393
REMARK  169  A    between atoms: _398  and  _400
REMARK  170  A    between atoms: _400  and  _401
REMARK  171  A    between atoms: _400  and  _403
REMARK  172  A    between atoms: _403  and  _404
REMARK  173  A    between atoms: _407  and  _409
REMARK  174  A    between atoms: _409  and  _410
REMARK  175  A    between atoms: _409  and  _412
REMARK  176  A    between atoms: _415  and  _417
REMARK  177  A    between atoms: _417  and  _418
REMARK  178  A    between atoms: _417  and  _420
REMARK  179  A    between atoms: _420  and  _421
REMARK  180  A    between atoms: _424  and  _426
REMARK  181  A    between atoms: _426  and  _427
REMARK  182  A    between atoms: _426  and  _429
REMARK  183  A    between atoms: _432  and  _434
REMARK  184  A    between atoms: _434  and  _435
REMARK  185  A    between atoms: _434  and  _437
REMARK  186  A    between atoms: _437  and  _438
REMARK  187  A    between atoms: _438  and  _439
REMARK  188  A    between atoms: _439  and  _440
REMARK  189  A    between atoms: _449  and  _451
REMARK  190  A    between atoms: _451  and  _452
REMARK  191  A    between atoms: _451  and  _454
REMARK  192  A    between atoms: _454  and  _455
REMARK  193  A    between atoms: _455  and  _456
REMARK  194  A    between atoms: _458  and  _460
REMARK  195  A    between atoms: _460  and  _461
REMARK  196  A    between atoms: _460  and  _463
REMARK  197  A    between atoms: _463  and  _464
REMARK  198  A    between atoms: _464  and  _465
REMARK  199  A    between atoms: _465  and  _466
REMARK  200  A    between atoms: _466  and  _467
REMARK  201  A    between atoms: _471  and  _473
REMARK  202  A    between atoms: _473  and  _474
REMARK  203  A    between atoms: _473  and  _476
REMARK  204  A    between atoms: _476  and  _477
REMARK  205  A    between atoms: _480  and  _482
REMARK  206  A    between atoms: _482  and  _483
REMARK  207  A    between atoms: _482  and  _485
REMARK  208  A    between atoms: _485  and  _486
REMARK  209  A    between atoms: _489  and  _491
REMARK  210  A    between atoms: _491  and  _492
REMARK  211  A    between atoms: _491  and  _494
REMARK  212  A    between atoms: _497  and  _499
REMARK  213  A    between atoms: _499  and  _500
REMARK  214  A    between atoms: _499  and  _502
REMARK  215  A    between atoms: _502  and  _503
REMARK  216  A    between atoms: _506  and  _508
REMARK  217  A    between atoms: _508  and  _509
REMARK  218  A    between atoms: _508  and  _511
REMARK  219  A    between atoms: _514  and  _516
REMARK  220  A    between atoms: _516  and  _517
REMARK  221  A    between atoms: _520  and  _522
REMARK  222  A    between atoms: _522  and  _523
REMARK  223  A    between atoms: _522  and  _525
REMARK  224  A    between atoms: _525  and  _526
REMARK  225  A    between atoms: _529  and  _531
REMARK  226  A    between atoms: _531  and  _532
REMARK  227  A    between atoms: _531  and  _534
REMARK  228  A    between atoms: _534  and  _535
REMARK  229  A    between atoms: _535  and  _536
REMARK  230  A    between atoms: _536  and  _537
REMARK  231  A    between atoms: _546  and  _548
REMARK  232  A    between atoms: _548  and  _549
REMARK  233  A    between atoms: _548  and  _551
REMARK  234  A    between atoms: _551  and  _552
REMARK  235  A    between atoms: _557  and  _559
REMARK  236  A    between atoms: _559  and  _560
REMARK  237  A    between atoms: _559  and  _562
REMARK  238  A    between atoms: _562  and  _563
REMARK  239  A    between atoms: _568  and  _569
REMARK                            x       y       z     vdW  Elec       q    Type
REMARK                         _______ _______ _______ _____ _____    ______ ____
ROOT
ATOM      1  CA  ARG A   3      18.456  26.268   2.170  0.00  0.00    +0.149 C 
ENDROOT
BRANCH   1   3
ATOM      2  C   ILE A   2      17.946  23.994   2.806  0.00  0.00    +0.241 C 
ATOM      3  N   ARG A   3      18.584  25.127   3.038  0.00  0.00    -0.297 N 
ATOM      4  H   ARG A   3      19.198  25.197   3.874  0.00  0.00    +0.150 HD
ATOM      5  O   ILE A   2      17.231  23.804   1.837  0.00  0.00    -0.273 OA
BRANCH   2   6
ATOM      6  CA  ILE A   2      18.158  22.918   3.829  0.00  0.00    +0.148 C 
BRANCH   6   9
ATOM      7  C   ALA A   1      16.426  22.231   5.354  0.00  0.00    +0.238 C 
ATOM      8  O   ALA A   1      17.121  22.477   6.330  0.00  0.00    -0.274 OA
ATOM      9  N   ILE A   2      16.848  22.385   4.119  0.00  0.00    -0.297 N 
ATOM     10  H   ILE A   2      16.223  22.117   3.332  0.00  0.00    +0.150 HD
BRANCH   7  11
ATOM     11  CA  ALA A   1      15.033  21.690   5.500  0.00  0.00    +0.145 C 
ATOM     12  CB  ALA A   1      14.034  22.799   5.431  0.00  0.00    +0.028 C 
BRANCH  11  13
ATOM     13  N   ALA A   1      15.008  21.071   6.786  0.00  0.00    -0.238 NA
ATOM     14  H   ALA A   1      15.271  21.642   7.615  0.00  0.00    +0.142 HD
ENDBRANCH  11  13
ENDBRANCH   7  11
ENDBRANCH   6   9
BRANCH   6  15
ATOM     15  CB  ILE A   2      19.098  21.819   3.295  0.00  0.00    +0.027 C 
ATOM     16  CG2 ILE A   2      20.371  22.452   2.711  0.00  0.00    +0.002 C 
BRANCH  15  17
ATOM     17  CG1 ILE A   2      19.413  20.830   4.434  0.00  0.00    +0.002 C 
ATOM     18  CD1 ILE A   2      20.193  19.633   4.034  0.00  0.00    +0.000 C 
ENDBRANCH  15  17
ENDBRANCH   6  15
ENDBRANCH   2   6
ENDBRANCH   1   3
BRANCH   1  19
ATOM     19  C   ARG A   3      19.829  26.764   1.821  0.00  0.00    +0.241 C 
ATOM     20  O   ARG A   3      20.604  27.105   2.682  0.00  0.00    -0.273 OA
ATOM     21  N   ASN A   4      20.130  26.764   0.537  0.00  0.00    -0.297 N 
ATOM     22  H   ASN A   4      19.440  26.389  -0.145  0.00  0.00    +0.150 HD
BRANCH  21  23
ATOM     23  CA  ASN A   4      21.388  27.269   0.054  0.00  0.00    +0.158 C 
BRANCH  23  24
ATOM     24  C   ASN A   4      21.284  28.696  -0.452  0.00  0.00    +0.241 C 
ATOM     25  N   TYR A   5      22.258  29.509  -0.069  0.00  0.00    -0.298 N 
ATOM     26  H   TYR A   5      22.966  29.148   0.602  0.00  0.00    +0.150 HD
ATOM     27  O   ASN A   4      20.338  29.058  -1.118  0.00  0.00    -0.273 OA
BRANCH  25  28
ATOM     28  CA  TYR A   5      22.388  30.862  -0.531  0.00  0.00    +0.141 C 
BRANCH  28  29
ATOM     29  C   TYR A   5      23.683  30.973  -1.356  0.00  0.00    +0.227 C 
ATOM     30  O   TYR A   5      24.723  30.522  -0.938  0.00  0.00    -0.286 OA
ENDBRANCH  28  29
BRANCH  28  31
ATOM     31  CB  TYR A   5      22.409  31.813   0.673  0.00  0.00    +0.054 C 
BRANCH  31  32
ATOM     32  CG  TYR A   5      21.060  31.986   1.358  0.00  0.00    -0.020 A 
ATOM     33  CD2 TYR A   5      20.532  30.999   2.190  0.00  0.00    -0.001 A 
ATOM     34  CE2 TYR A   5      19.311  31.170   2.818  0.00  0.00    +0.036 A 
ATOM     35  CZ  TYR A   5      18.596  32.335   2.610  0.00  0.00    +0.134 A 
ATOM     36  CE1 TYR A   5      19.100  33.324   1.806  0.00  0.00    +0.036 A 
ATOM     37  CD1 TYR A   5      20.322  33.142   1.183  0.00  0.00    -0.001 A 
BRANCH  35  38
ATOM     38  OH  TYR A   5      17.387  32.541   3.199  0.00  0.00    -0.506 OA
ATOM     39  HH  TYR A   5      17.491  32.512   4.183  0.00  0.00    +0.292 HD
ENDBRANCH  35  38
ENDBRANCH  31  32
ENDBRANCH  28  31
ENDBRANCH  25  28
ENDBRANCH  23  24
BRANCH  23  40
ATOM     40  CB  ASN A   4      21.901  26.357  -1.015  0.00  0.00    +0.114 C 
BRANCH  40  41
ATOM     41  CG  ASN A   4      22.396  25.070  -0.454  0.00  0.00    +0.222 C 
ATOM     42  ND2 ASN A   4      23.078  25.146   0.671  0.00  0.00    -0.329 N 
ATOM     43 HD21 ASN A   4      23.243  26.071   1.118  0.00  0.00    +0.145 HD
ATOM     44 HD22 ASN A   4      23.451  24.281   1.112  0.00  0.00    +0.145 HD
ATOM     45  OD1 ASN A   4      22.173  24.009  -1.021  0.00  0.00    -0.275 OA
ENDBRANCH  40  41
ENDBRANCH  23  40
ENDBRANCH  21  23
ENDBRANCH   1  19
BRANCH   1  46
ATOM     46  CB  ARG A   3      17.621  27.338   2.855  0.00  0.00    +0.033 C 
BRANCH  46  47
ATOM     47  CG  ARG A   3      16.146  27.069   2.632  0.00  0.00    +0.045 C 
BRANCH  47  48
ATOM     48  CD  ARG A   3      15.247  27.575   3.700  0.00  0.00    +0.174 C 
BRANCH  48  49
ATOM     49  NE  ARG A   3      15.024  29.016   3.599  0.00  0.00    -0.265 N 
ATOM     50  HE  ARG A   3      15.517  29.627   4.281  0.00  0.00    +0.259 HD
ATOM     51  CZ  ARG A   3      14.242  29.605   2.705  0.00  0.00    +0.342 C 
ATOM     52  NH2 ARG A   3      14.110  30.919   2.732  0.00  0.00    -0.292 N 
ATOM     53 HH21 ARG A   3      14.616  31.478   3.448  0.00  0.00    +0.255 HD
ATOM     54 HH22 ARG A   3      13.500  31.395   2.037  0.00  0.00    +0.255 HD
ATOM     55  NH1 ARG A   3      13.595  28.906   1.781  0.00  0.00    -0.292 N 
ATOM     56 HH11 ARG A   3      13.695  27.871   1.747  0.00  0.00    +0.255 HD
ATOM     57 HH12 ARG A   3      12.988  29.393   1.091  0.00  0.00    +0.255 HD
ENDBRANCH  48  49
ENDBRANCH  47  48
ENDBRANCH  46  47
ENDBRANCH   1  46
TORSDOF 21
REMARK  Name = ../refined-set-2016/1vyg/1vyg_pocket.pdb
REMARK  239 active torsions:
REMARK  status: ('A' for Active; 'I' for Inactive)
REMARK    1  A    between atoms: _1  and  _3
REMARK    2  A    between atoms: _3  and  _4
REMARK    3  A    between atoms: _3  and  _6
REMARK    4  A    between atoms: _6  and  _7
REMARK    5  A    between atoms: _10  and  _12
REMARK    6  A    between atoms: _12  and  _13
REMARK    7  A    between atoms: _12  and  _15
REMARK    8  A    between atoms: _15  and  _16
REMARK    9  A    between atoms: _16  and  _17
REMARK   10  A    between atoms: _20  and  _22
REMARK   11  A    between atoms: _22  and  _23
REMARK   12  A    between atoms: _22  and  _25
REMARK   13  A    between atoms: _25  and  _26
REMARK   14  A    between atoms: _28  and  _30
REMARK   15  A    between atoms: _30  and  _31
REMARK   16  A    between atoms: _30  and  _33
REMARK   17  A    between atoms: _33  and  _34
REMARK   18  A    between atoms: _40  and  _42
REMARK   19  A    between atoms: _42  and  _43
REMARK   20  A    between atoms: _42  and  _45
REMARK   21  A    between atoms: _48  and  _50
REMARK   22  A    between atoms: _50  and  _51
REMARK   23  A    between atoms: _50  and  _53
REMARK   24  A    between atoms: _53  and  _54
REMARK   25  A    between atoms: _54  and  _55
REMARK   26  A    between atoms: _57  and  _59
REMARK   27  A    between atoms: _59  and  _60
REMARK   28  A    between atoms: _59  and  _62
REMARK   29  A    between atoms: _62  and  _63
REMARK   30  A    between atoms: _65  and  _67
REMARK   31  A    between atoms: _67  and  _68
REMARK   32  A    between atoms: _67  and  _70
REMARK   33  A    between atoms: _70  and  _71
REMARK   34  A    between atoms: _74  and  _76
REMARK   35  A    between atoms: _76  and  _77
REMARK   36  A    between atoms: _79  and  _81
REMARK   37  A    between atoms: _81  and  _82
REMARK   38  A    between atoms: _81  and  _84
REMARK   39  A    between atoms: _87  and  _89
REMARK   40  A    between atoms: _89  and  _90
REMARK   41  A    between atoms: _89  and  _92
REMARK   42  A    between atoms: _92  and  _93
REMARK   43  A    between atoms: _95  and  _97
REMARK   44  A    between atoms: _97  and  _98
REMARK   45  A    between atoms: _101  and  _103
REMARK   46  A    between atoms: _103  and  _104
REMARK   47  A    between atoms: _103  and  _106
REMARK   48  A    between atoms: _106  and  _107
REMARK   49  A    between atoms: _110  and  _112
REMARK   50  A    between atoms: _112  and  _113
REMARK   51  A    between atoms: _112  and  _115
REMARK   52  A    between atoms: _115  and  _116
REMARK   53  A    between atoms: _116  and  _117
REMARK   54  A    between atoms: _117  and  _118
REMARK   55  A    between atoms: _127  and  _129
REMARK   56  A    between atoms: _129  and  _130
REMARK   57  A    between atoms: _129  and  _132
REMARK   58  A    between atoms: _132  and  _133
REMARK   59  A    between atoms: _133  and  _134
REMARK   60  A    between atoms: _139  and  _141
REMARK   61  A    between atoms: _141  and  _142
REMARK   62  A    between atoms: _141  and  _144
REMARK   63  A    between atoms: _144  and  _145
REMARK   64  A    between atoms: _148  and  _150
REMARK   65  A    between atoms: _150  and  _151
REMARK   66  A    between atoms: _153  and  _155
REMARK   67  A    between atoms: _155  and  _156
REMARK   68  A    between atoms: _155  and  _158
REMARK   69  A    between atoms: _158  and  _159
REMARK   70  A    between atoms: _164  and  _166
REMARK   71  A    between atoms: _166  and  _167
REMARK   72  A    between atoms: _166  and  _169
REMARK   73  A    between atoms: _169  and  _170
REMARK   74  A    between atoms: _173  and  _175
REMARK   75  A    between atoms: _175  and  _176
REMARK   76  A    between atoms: _175  and  _178
REMARK   77  A    between atoms: _181  and  _183
REMARK   78  A    between atoms: _183  and  _184
REMARK   79  A    between atoms: _183  and  _186
REMARK   80  A    between atoms: _186  and  _187
REMARK   81  A    between atoms: _191  and  _192
REMARK   82  A    between atoms: _197  and  _199
REMARK   83  A    between atoms: _199  and  _200
REMARK   84  A    between atoms: _199  and  _202
REMARK   85  A    between atoms: _202  and  _203
REMARK   86  A    between atoms: _206  and  _208
REMARK   87  A    between atoms: _208  and  _209
REMARK   88  A    between atoms: _208  and  _211
REMARK   89  A    between atoms: _214  and  _216
REMARK   90  A    between atoms: _216  and  _217
REMARK   91  A    between atoms: _216  and  _219
REMARK   92  A    between atoms: _219  and  _220
REMARK   93  A    between atoms: _226  and  _228
REMARK   94  A    between atoms: _228  and  _229
REMARK   95  A    between atoms: _228  and  _231
REMARK   96  A    between atoms: _231  and  _232
REMARK   97  A    between atoms: _232  and  _233
REMARK   98  A    between atoms: _235  and  _237
REMARK   99  A    between atoms: _237  and  _238
REMARK  100  A    between atoms: _237  and  _240
REMARK  101  A    between atoms: _240  and  _241
REMARK  102  A    between atoms: _244  and  _246
REMARK  103  A    between atoms: _246  and  _247
REMARK  104  A    between atoms: _246  and  _249
REMARK  105  A    between atoms: _249  and  _250
REMARK  106  A    between atoms: _250  and  _251
REMARK  107  A    between atoms: _254  and  _256
REMARK  108  A    between atoms: _256  and  _257
REMARK  109  A    between atoms: _256  and  _259
REMARK  110  A    between atoms: _259  and  _260
REMARK  111  A    between atoms: _262  and  _264
REMARK  112  A    between atoms: _264  and  _265
REMARK  113  A    between atoms: _264  and  _267
REMARK  114  A    between atoms: _267  and  _268
REMARK  115  A    between atoms: _271  and  _273
REMARK  116  A    between atoms: _273  and  _274
REMARK  117  A    between atoms: _273  and  _276
REMARK  118  A    between atoms: _276  and  _277
REMARK  119  A    between atoms: _283  and  _285
REMARK  120  A    between atoms: _285  and  _286
REMARK  121  A    between atoms: _285  and  _288
REMARK  122  A    between atoms: _288  and  _289
REMARK  123  A    between atoms: _289  and  _290
REMARK  124  A    between atoms: _290  and  _291
REMARK  125  A    between atoms: _291  and  _292
REMARK  126  A    between atoms: _296  and  _298
REMARK  127  A    between atoms: _298  and  _299
REMARK  128  A    between atoms: _298  and  _301
REMARK  129  A    between atoms: _301  and  _302
REMARK  130  A    between atoms: _307  and  _309
REMARK  131  A    between atoms: _309  and  _310
REMARK  132  A    between atoms: _309  and  _312
REMARK  133  A    between atoms: _312  and  _313
REMARK  134  A    between atoms: _316  and  _318
REMARK  135  A    between atoms: _318  and  _319
REMARK  136  A    between atoms: _318  and  _321
REMARK  137  A    between atoms: _321  and  _322
REMARK  138  A    between atoms: _322  and  _323
REMARK  139  A    between atoms: _326  and  _328
REMARK  140  A    between atoms: _328  and  _329
REMARK  141  A    between atoms: _328  and  _331
REMARK  142  A    between atoms: _331  and  _332
REMARK  143  A    between atoms: _335  and  _337
REMARK  144  A    between atoms: _337  and  _338
REMARK  145  A    between atoms: _337  and  _340
REMARK  146  A    between atoms: _340  and  _341
REMARK  147  A    between atoms: _343  and  _345
REMARK  148  A    between atoms: _345  and  _346
REMARK  149  A    between atoms: _345  and  _348
REMARK  150  A    between atoms: _348  and  _349
REMARK  151  A    between atoms: _352  and  _354
REMARK  152  A    between atoms: _354  and  _355
REMARK  153  A    between atoms: _357  and  _359
REMARK  154  A    between atoms: _359  and  _360
REMARK  155  A    between atoms: _359  and  _362
REMARK  156  A    between atoms: _362  and  _363
REMARK  157  A    between atoms: _363  and  _364
REMARK  158  A    between atoms: _364  and  _365
REMARK  159  A    between atoms: _374  and  _376
REMARK  160  A    between atoms: _376  and  _377
REMARK  161  A    between atoms: _376  and  _379
REMARK  162  A    between atoms: _379  and  _380
REMARK  163  A    between atoms: _380  and  _381
REMARK  164  A    between atoms: _386  and  _388
REMARK  165  A    between atoms: _388  and  _389
REMARK  166  A    between atoms: _388  and  _391
REMARK  167  A    between atoms: _391  and  _392
REMARK  168  A    between atoms: _392  and  _393
REMARK  169  A    between atoms: _398  and  _400
REMARK  170  A    between atoms: _400  and  _401
REMARK  171  A    between atoms: _400  and  _403
REMARK  172  A    between atoms: _403  and  _404
REMARK  173  A    between atoms: _407  and  _409
REMARK  174  A    between atoms: _409  and  _410
REMARK  175  A    between atoms: _409  and  _412
REMARK  176  A    between atoms: _415  and  _417
REMARK  177  A    between atoms: _417  and  _418
REMARK  178  A    between atoms: _417  and  _420
REMARK  179  A    between atoms: _420  and  _421
REMARK  180  A    between atoms: _424  and  _426
REMARK  181  A    between atoms: _426  and  _427
REMARK  182  A    between atoms: _426  and  _429
REMARK  183  A    between atoms: _432  and  _434
REMARK  184  A    between atoms: _434  and  _435
REMARK  185  A    between atoms: _434  and  _437
REMARK  186  A    between atoms: _437  and  _438
REMARK  187  A    between atoms: _438  and  _439
REMARK  188  A    between atoms: _439  and  _440
REMARK  189  A    between atoms: _449  and  _451
REMARK  190  A    between atoms: _451  and  _452
REMARK  191  A    between atoms: _451  and  _454
REMARK  192  A    between atoms: _454  and  _455
REMARK  193  A    between atoms: _455  and  _456
REMARK  194  A    between atoms: _458  and  _460
REMARK  195  A    between atoms: _460  and  _461
REMARK  196  A    between atoms: _460  and  _463
REMARK  197  A    between atoms: _463  and  _464
REMARK  198  A    between atoms: _464  and  _465
REMARK  199  A    between atoms: _465  and  _466
REMARK  200  A    between atoms: _466  and  _467
REMARK  201  A    between atoms: _471  and  _473
REMARK  202  A    between atoms: _473  and  _474
REMARK  203  A    between atoms: _473  and  _476
REMARK  204  A    between atoms: _476  and  _477
REMARK  205  A    between atoms: _480  and  _482
REMARK  206  A    between atoms: _482  and  _483
REMARK  207  A    between atoms: _482  and  _485
REMARK  208  A    between atoms: _485  and  _486
REMARK  209  A    between atoms: _489  and  _491
REMARK  210  A    between atoms: _491  and  _492
REMARK  211  A    between atoms: _491  and  _494
REMARK  212  A    between atoms: _497  and  _499
REMARK  213  A    between atoms: _499  and  _500
REMARK  214  A    between atoms: _499  and  _502
REMARK  215  A    between atoms: _502  and  _503
REMARK  216  A    between atoms: _506  and  _508
REMARK  217  A    between atoms: _508  and  _509
REMARK  218  A    between atoms: _508  and  _511
REMARK  219  A    between atoms: _514  and  _516
REMARK  220  A    between atoms: _516  and  _517
REMARK  221  A    between atoms: _520  and  _522
REMARK  222  A    between atoms: _522  and  _523
REMARK  223  A    between atoms: _522  and  _525
REMARK  224  A    between atoms: _525  and  _526
REMARK  225  A    between atoms: _529  and  _531
REMARK  226  A    between atoms: _531  and  _532
REMARK  227  A    between atoms: _531  and  _534
REMARK  228  A    between atoms: _534  and  _535
REMARK  229  A    between atoms: _535  and  _536
REMARK  230  A    between atoms: _536  and  _537
REMARK  231  A    between atoms: _546  and  _548
REMARK  232  A    between atoms: _548  and  _549
REMARK  233  A    between atoms: _548  and  _551
REMARK  234  A    between atoms: _551  and  _552
REMARK  235  A    between atoms: _557  and  _559
REMARK  236  A    between atoms: _559  and  _560
REMARK  237  A    between atoms: _559  and  _562
REMARK  238  A    between atoms: _562  and  _563
REMARK  239  A    between atoms: _568  and  _569
REMARK                            x       y       z     vdW  Elec       q    Type
REMARK                         _______ _______ _______ _____ _____    ______ ____
ROOT
ATOM      1  O   HOH     1       1.992  32.344  10.357  0.00  0.00    +0.000 OA
ENDROOT
TORSDOF 0
REMARK  Name = ../refined-set-2016/1vyg/1vyg_pocket.pdb
REMARK  239 active torsions:
REMARK  status: ('A' for Active; 'I' for Inactive)
REMARK    1  A    between atoms: _1  and  _3
REMARK    2  A    between atoms: _3  and  _4
REMARK    3  A    between atoms: _3  and  _6
REMARK    4  A    between atoms: _6  and  _7
REMARK    5  A    between atoms: _10  and  _12
REMARK    6  A    between atoms: _12  and  _13
REMARK    7  A    between atoms: _12  and  _15
REMARK    8  A    between atoms: _15  and  _16
REMARK    9  A    between atoms: _16  and  _17
REMARK   10  A    between atoms: _20  and  _22
REMARK   11  A    between atoms: _22  and  _23
REMARK   12  A    between atoms: _22  and  _25
REMARK   13  A    between atoms: _25  and  _26
REMARK   14  A    between atoms: _28  and  _30
REMARK   15  A    between atoms: _30  and  _31
REMARK   16  A    between atoms: _30  and  _33
REMARK   17  A    between atoms: _33  and  _34
REMARK   18  A    between atoms: _40  and  _42
REMARK   19  A    between atoms: _42  and  _43
REMARK   20  A    between atoms: _42  and  _45
REMARK   21  A    between atoms: _48  and  _50
REMARK   22  A    between atoms: _50  and  _51
REMARK   23  A    between atoms: _50  and  _53
REMARK   24  A    between atoms: _53  and  _54
REMARK   25  A    between atoms: _54  and  _55
REMARK   26  A    between atoms: _57  and  _59
REMARK   27  A    between atoms: _59  and  _60
REMARK   28  A    between atoms: _59  and  _62
REMARK   29  A    between atoms: _62  and  _63
REMARK   30  A    between atoms: _65  and  _67
REMARK   31  A    between atoms: _67  and  _68
REMARK   32  A    between atoms: _67  and  _70
REMARK   33  A    between atoms: _70  and  _71
REMARK   34  A    between atoms: _74  and  _76
REMARK   35  A    between atoms: _76  and  _77
REMARK   36  A    between atoms: _79  and  _81
REMARK   37  A    between atoms: _81  and  _82
REMARK   38  A    between atoms: _81  and  _84
REMARK   39  A    between atoms: _87  and  _89
REMARK   40  A    between atoms: _89  and  _90
REMARK   41  A    between atoms: _89  and  _92
REMARK   42  A    between atoms: _92  and  _93
REMARK   43  A    between atoms: _95  and  _97
REMARK   44  A    between atoms: _97  and  _98
REMARK   45  A    between atoms: _101  and  _103
REMARK   46  A    between atoms: _103  and  _104
REMARK   47  A    between atoms: _103  and  _106
REMARK   48  A    between atoms: _106  and  _107
REMARK   49  A    between atoms: _110  and  _112
REMARK   50  A    between atoms: _112  and  _113
REMARK   51  A    between atoms: _112  and  _115
REMARK   52  A    between atoms: _115  and  _116
REMARK   53  A    between atoms: _116  and  _117
REMARK   54  A    between atoms: _117  and  _118
REMARK   55  A    between atoms: _127  and  _129
REMARK   56  A    between atoms: _129  and  _130
REMARK   57  A    between atoms: _129  and  _132
REMARK   58  A    between atoms: _132  and  _133
REMARK   59  A    between atoms: _133  and  _134
REMARK   60  A    between atoms: _139  and  _141
REMARK   61  A    between atoms: _141  and  _142
REMARK   62  A    between atoms: _141  and  _144
REMARK   63  A    between atoms: _144  and  _145
REMARK   64  A    between atoms: _148  and  _150
REMARK   65  A    between atoms: _150  and  _151
REMARK   66  A    between atoms: _153  and  _155
REMARK   67  A    between atoms: _155  and  _156
REMARK   68  A    between atoms: _155  and  _158
REMARK   69  A    between atoms: _158  and  _159
REMARK   70  A    between atoms: _164  and  _166
REMARK   71  A    between atoms: _166  and  _167
REMARK   72  A    between atoms: _166  and  _169
REMARK   73  A    between atoms: _169  and  _170
REMARK   74  A    between atoms: _173  and  _175
REMARK   75  A    between atoms: _175  and  _176
REMARK   76  A    between atoms: _175  and  _178
REMARK   77  A    between atoms: _181  and  _183
REMARK   78  A    between atoms: _183  and  _184
REMARK   79  A    between atoms: _183  and  _186
REMARK   80  A    between atoms: _186  and  _187
REMARK   81  A    between atoms: _191  and  _192
REMARK   82  A    between atoms: _197  and  _199
REMARK   83  A    between atoms: _199  and  _200
REMARK   84  A    between atoms: _199  and  _202
REMARK   85  A    between atoms: _202  and  _203
REMARK   86  A    between atoms: _206  and  _208
REMARK   87  A    between atoms: _208  and  _209
REMARK   88  A    between atoms: _208  and  _211
REMARK   89  A    between atoms: _214  and  _216
REMARK   90  A    between atoms: _216  and  _217
REMARK   91  A    between atoms: _216  and  _219
REMARK   92  A    between atoms: _219  and  _220
REMARK   93  A    between atoms: _226  and  _228
REMARK   94  A    between atoms: _228  and  _229
REMARK   95  A    between atoms: _228  and  _231
REMARK   96  A    between atoms: _231  and  _232
REMARK   97  A    between atoms: _232  and  _233
REMARK   98  A    between atoms: _235  and  _237
REMARK   99  A    between atoms: _237  and  _238
REMARK  100  A    between atoms: _237  and  _240
REMARK  101  A    between atoms: _240  and  _241
REMARK  102  A    between atoms: _244  and  _246
REMARK  103  A    between atoms: _246  and  _247
REMARK  104  A    between atoms: _246  and  _249
REMARK  105  A    between atoms: _249  and  _250
REMARK  106  A    between atoms: _250  and  _251
REMARK  107  A    between atoms: _254  and  _256
REMARK  108  A    between atoms: _256  and  _257
REMARK  109  A    between atoms: _256  and  _259
REMARK  110  A    between atoms: _259  and  _260
REMARK  111  A    between atoms: _262  and  _264
REMARK  112  A    between atoms: _264  and  _265
REMARK  113  A    between atoms: _264  and  _267
REMARK  114  A    between atoms: _267  and  _268
REMARK  115  A    between atoms: _271  and  _273
REMARK  116  A    between atoms: _273  and  _274
REMARK  117  A    between atoms: _273  and  _276
REMARK  118  A    between atoms: _276  and  _277
REMARK  119  A    between atoms: _283  and  _285
REMARK  120  A    between atoms: _285  and  _286
REMARK  121  A    between atoms: _285  and  _288
REMARK  122  A    between atoms: _288  and  _289
REMARK  123  A    between atoms: _289  and  _290
REMARK  124  A    between atoms: _290  and  _291
REMARK  125  A    between atoms: _291  and  _292
REMARK  126  A    between atoms: _296  and  _298
REMARK  127  A    between atoms: _298  and  _299
REMARK  128  A    between atoms: _298  and  _301
REMARK  129  A    between atoms: _301  and  _302
REMARK  130  A    between atoms: _307  and  _309
REMARK  131  A    between atoms: _309  and  _310
REMARK  132  A    between atoms: _309  and  _312
REMARK  133  A    between atoms: _312  and  _313
REMARK  134  A    between atoms: _316  and  _318
REMARK  135  A    between atoms: _318  and  _319
REMARK  136  A    between atoms: _318  and  _321
REMARK  137  A    between atoms: _321  and  _322
REMARK  138  A    between atoms: _322  and  _323
REMARK  139  A    between atoms: _326  and  _328
REMARK  140  A    between atoms: _328  and  _329
REMARK  141  A    between atoms: _328  and  _331
REMARK  142  A    between atoms: _331  and  _332
REMARK  143  A    between atoms: _335  and  _337
REMARK  144  A    between atoms: _337  and  _338
REMARK  145  A    between atoms: _337  and  _340
REMARK  146  A    between atoms: _340  and  _341
REMARK  147  A    between atoms: _343  and  _345
REMARK  148  A    between atoms: _345  and  _346
REMARK  149  A    between atoms: _345  and  _348
REMARK  150  A    between atoms: _348  and  _349
REMARK  151  A    between atoms: _352  and  _354
REMARK  152  A    between atoms: _354  and  _355
REMARK  153  A    between atoms: _357  and  _359
REMARK  154  A    between atoms: _359  and  _360
REMARK  155  A    between atoms: _359  and  _362
REMARK  156  A    between atoms: _362  and  _363
REMARK  157  A    between atoms: _363  and  _364
REMARK  158  A    between atoms: _364  and  _365
REMARK  159  A    between atoms: _374  and  _376
REMARK  160  A    between atoms: _376  and  _377
REMARK  161  A    between atoms: _376  and  _379
REMARK  162  A    between atoms: _379  and  _380
REMARK  163  A    between atoms: _380  and  _381
REMARK  164  A    between atoms: _386  and  _388
REMARK  165  A    between atoms: _388  and  _389
REMARK  166  A    between atoms: _388  and  _391
REMARK  167  A    between atoms: _391  and  _392
REMARK  168  A    between atoms: _392  and  _393
REMARK  169  A    between atoms: _398  and  _400
REMARK  170  A    between atoms: _400  and  _401
REMARK  171  A    between atoms: _400  and  _403
REMARK  172  A    between atoms: _403  and  _404
REMARK  173  A    between atoms: _407  and  _409
REMARK  174  A    between atoms: _409  and  _410
REMARK  175  A    between atoms: _409  and  _412
REMARK  176  A    between atoms: _415  and  _417
REMARK  177  A    between atoms: _417  and  _418
REMARK  178  A    between atoms: _417  and  _420
REMARK  179  A    between atoms: _420  and  _421
REMARK  180  A    between atoms: _424  and  _426
REMARK  181  A    between atoms: _426  and  _427
REMARK  182  A    between atoms: _426  and  _429
REMARK  183  A    between atoms: _432  and  _434
REMARK  184  A    between atoms: _434  and  _435
REMARK  185  A    between atoms: _434  and  _437
REMARK  186  A    between atoms: _437  and  _438
REMARK  187  A    between atoms: _438  and  _439
REMARK  188  A    between atoms: _439  and  _440
REMARK  189  A    between atoms: _449  and  _451
REMARK  190  A    between atoms: _451  and  _452
REMARK  191  A    between atoms: _451  and  _454
REMARK  192  A    between atoms: _454  and  _455
REMARK  193  A    between atoms: _455  and  _456
REMARK  194  A    between atoms: _458  and  _460
REMARK  195  A    between atoms: _460  and  _461
REMARK  196  A    between atoms: _460  and  _463
REMARK  197  A    between atoms: _463  and  _464
REMARK  198  A    between atoms: _464  and  _465
REMARK  199  A    between atoms: _465  and  _466
REMARK  200  A    between atoms: _466  and  _467
REMARK  201  A    between atoms: _471  and  _473
REMARK  202  A    between atoms: _473  and  _474
REMARK  203  A    between atoms: _473  and  _476
REMARK  204  A    between atoms: _476  and  _477
REMARK  205  A    between atoms: _480  and  _482
REMARK  206  A    between atoms: _482  and  _483
REMARK  207  A    between atoms: _482  and  _485
REMARK  208  A    between atoms: _485  and  _486
REMARK  209  A    between atoms: _489  and  _491
REMARK  210  A    between atoms: _491  and  _492
REMARK  211  A    between atoms: _491  and  _494
REMARK  212  A    between atoms: _497  and  _499
REMARK  213  A    between atoms: _499  and  _500
REMARK  214  A    between atoms: _499  and  _502
REMARK  215  A    between atoms: _502  and  _503
REMARK  216  A    between atoms: _506  and  _508
REMARK  217  A    between atoms: _508  and  _509
REMARK  218  A    between atoms: _508  and  _511
REMARK  219  A    between atoms: _514  and  _516
REMARK  220  A    between atoms: _516  and  _517
REMARK  221  A    between atoms: _520  and  _522
REMARK  222  A    between atoms: _522  and  _523
REMARK  223  A    between atoms: _522  and  _525
REMARK  224  A    between atoms: _525  and  _526
REMARK  225  A    between atoms: _529  and  _531
REMARK  226  A    between atoms: _531  and  _532
REMARK  227  A    between atoms: _531  and  _534
REMARK  228  A    between atoms: _534  and  _535
REMARK  229  A    between atoms: _535  and  _536
REMARK  230  A    between atoms: _536  and  _537
REMARK  231  A    between atoms: _546  and  _548
REMARK  232  A    between atoms: _548  and  _549
REMARK  233  A    between atoms: _548  and  _551
REMARK  234  A    between atoms: _551  and  _552
REMARK  235  A    between atoms: _557  and  _559
REMARK  236  A    between atoms: _559  and  _560
REMARK  237  A    between atoms: _559  and  _562
REMARK  238  A    between atoms: _562  and  _563
REMARK  239  A    between atoms: _568  and  _569
REMARK                            x       y       z     vdW  Elec       q    Type
REMARK                         _______ _______ _______ _____ _____    ______ ____
ROOT
ATOM      1  O   HOH     1      11.726  31.625   0.907  0.00  0.00    +0.000 OA
ENDROOT
TORSDOF 0
REMARK  Name = ../refined-set-2016/1vyg/1vyg_pocket.pdb
REMARK  239 active torsions:
REMARK  status: ('A' for Active; 'I' for Inactive)
REMARK    1  A    between atoms: _1  and  _3
REMARK    2  A    between atoms: _3  and  _4
REMARK    3  A    between atoms: _3  and  _6
REMARK    4  A    between atoms: _6  and  _7
REMARK    5  A    between atoms: _10  and  _12
REMARK    6  A    between atoms: _12  and  _13
REMARK    7  A    between atoms: _12  and  _15
REMARK    8  A    between atoms: _15  and  _16
REMARK    9  A    between atoms: _16  and  _17
REMARK   10  A    between atoms: _20  and  _22
REMARK   11  A    between atoms: _22  and  _23
REMARK   12  A    between atoms: _22  and  _25
REMARK   13  A    between atoms: _25  and  _26
REMARK   14  A    between atoms: _28  and  _30
REMARK   15  A    between atoms: _30  and  _31
REMARK   16  A    between atoms: _30  and  _33
REMARK   17  A    between atoms: _33  and  _34
REMARK   18  A    between atoms: _40  and  _42
REMARK   19  A    between atoms: _42  and  _43
REMARK   20  A    between atoms: _42  and  _45
REMARK   21  A    between atoms: _48  and  _50
REMARK   22  A    between atoms: _50  and  _51
REMARK   23  A    between atoms: _50  and  _53
REMARK   24  A    between atoms: _53  and  _54
REMARK   25  A    between atoms: _54  and  _55
REMARK   26  A    between atoms: _57  and  _59
REMARK   27  A    between atoms: _59  and  _60
REMARK   28  A    between atoms: _59  and  _62
REMARK   29  A    between atoms: _62  and  _63
REMARK   30  A    between atoms: _65  and  _67
REMARK   31  A    between atoms: _67  and  _68
REMARK   32  A    between atoms: _67  and  _70
REMARK   33  A    between atoms: _70  and  _71
REMARK   34  A    between atoms: _74  and  _76
REMARK   35  A    between atoms: _76  and  _77
REMARK   36  A    between atoms: _79  and  _81
REMARK   37  A    between atoms: _81  and  _82
REMARK   38  A    between atoms: _81  and  _84
REMARK   39  A    between atoms: _87  and  _89
REMARK   40  A    between atoms: _89  and  _90
REMARK   41  A    between atoms: _89  and  _92
REMARK   42  A    between atoms: _92  and  _93
REMARK   43  A    between atoms: _95  and  _97
REMARK   44  A    between atoms: _97  and  _98
REMARK   45  A    between atoms: _101  and  _103
REMARK   46  A    between atoms: _103  and  _104
REMARK   47  A    between atoms: _103  and  _106
REMARK   48  A    between atoms: _106  and  _107
REMARK   49  A    between atoms: _110  and  _112
REMARK   50  A    between atoms: _112  and  _113
REMARK   51  A    between atoms: _112  and  _115
REMARK   52  A    between atoms: _115  and  _116
REMARK   53  A    between atoms: _116  and  _117
REMARK   54  A    between atoms: _117  and  _118
REMARK   55  A    between atoms: _127  and  _129
REMARK   56  A    between atoms: _129  and  _130
REMARK   57  A    between atoms: _129  and  _132
REMARK   58  A    between atoms: _132  and  _133
REMARK   59  A    between atoms: _133  and  _134
REMARK   60  A    between atoms: _139  and  _141
REMARK   61  A    between atoms: _141  and  _142
REMARK   62  A    between atoms: _141  and  _144
REMARK   63  A    between atoms: _144  and  _145
REMARK   64  A    between atoms: _148  and  _150
REMARK   65  A    between atoms: _150  and  _151
REMARK   66  A    between atoms: _153  and  _155
REMARK   67  A    between atoms: _155  and  _156
REMARK   68  A    between atoms: _155  and  _158
REMARK   69  A    between atoms: _158  and  _159
REMARK   70  A    between atoms: _164  and  _166
REMARK   71  A    between atoms: _166  and  _167
REMARK   72  A    between atoms: _166  and  _169
REMARK   73  A    between atoms: _169  and  _170
REMARK   74  A    between atoms: _173  and  _175
REMARK   75  A    between atoms: _175  and  _176
REMARK   76  A    between atoms: _175  and  _178
REMARK   77  A    between atoms: _181  and  _183
REMARK   78  A    between atoms: _183  and  _184
REMARK   79  A    between atoms: _183  and  _186
REMARK   80  A    between atoms: _186  and  _187
REMARK   81  A    between atoms: _191  and  _192
REMARK   82  A    between atoms: _197  and  _199
REMARK   83  A    between atoms: _199  and  _200
REMARK   84  A    between atoms: _199  and  _202
REMARK   85  A    between atoms: _202  and  _203
REMARK   86  A    between atoms: _206  and  _208
REMARK   87  A    between atoms: _208  and  _209
REMARK   88  A    between atoms: _208  and  _211
REMARK   89  A    between atoms: _214  and  _216
REMARK   90  A    between atoms: _216  and  _217
REMARK   91  A    between atoms: _216  and  _219
REMARK   92  A    between atoms: _219  and  _220
REMARK   93  A    between atoms: _226  and  _228
REMARK   94  A    between atoms: _228  and  _229
REMARK   95  A    between atoms: _228  and  _231
REMARK   96  A    between atoms: _231  and  _232
REMARK   97  A    between atoms: _232  and  _233
REMARK   98  A    between atoms: _235  and  _237
REMARK   99  A    between atoms: _237  and  _238
REMARK  100  A    between atoms: _237  and  _240
REMARK  101  A    between atoms: _240  and  _241
REMARK  102  A    between atoms: _244  and  _246
REMARK  103  A    between atoms: _246  and  _247
REMARK  104  A    between atoms: _246  and  _249
REMARK  105  A    between atoms: _249  and  _250
REMARK  106  A    between atoms: _250  and  _251
REMARK  107  A    between atoms: _254  and  _256
REMARK  108  A    between atoms: _256  and  _257
REMARK  109  A    between atoms: _256  and  _259
REMARK  110  A    between atoms: _259  and  _260
REMARK  111  A    between atoms: _262  and  _264
REMARK  112  A    between atoms: _264  and  _265
REMARK  113  A    between atoms: _264  and  _267
REMARK  114  A    between atoms: _267  and  _268
REMARK  115  A    between atoms: _271  and  _273
REMARK  116  A    between atoms: _273  and  _274
REMARK  117  A    between atoms: _273  and  _276
REMARK  118  A    between atoms: _276  and  _277
REMARK  119  A    between atoms: _283  and  _285
REMARK  120  A    between atoms: _285  and  _286
REMARK  121  A    between atoms: _285  and  _288
REMARK  122  A    between atoms: _288  and  _289
REMARK  123  A    between atoms: _289  and  _290
REMARK  124  A    between atoms: _290  and  _291
REMARK  125  A    between atoms: _291  and  _292
REMARK  126  A    between atoms: _296  and  _298
REMARK  127  A    between atoms: _298  and  _299
REMARK  128  A    between atoms: _298  and  _301
REMARK  129  A    between atoms: _301  and  _302
REMARK  130  A    between atoms: _307  and  _309
REMARK  131  A    between atoms: _309  and  _310
REMARK  132  A    between atoms: _309  and  _312
REMARK  133  A    between atoms: _312  and  _313
REMARK  134  A    between atoms: _316  and  _318
REMARK  135  A    between atoms: _318  and  _319
REMARK  136  A    between atoms: _318  and  _321
REMARK  137  A    between atoms: _321  and  _322
REMARK  138  A    between atoms: _322  and  _323
REMARK  139  A    between atoms: _326  and  _328
REMARK  140  A    between atoms: _328  and  _329
REMARK  141  A    between atoms: _328  and  _331
REMARK  142  A    between atoms: _331  and  _332
REMARK  143  A    between atoms: _335  and  _337
REMARK  144  A    between atoms: _337  and  _338
REMARK  145  A    between atoms: _337  and  _340
REMARK  146  A    between atoms: _340  and  _341
REMARK  147  A    between atoms: _343  and  _345
REMARK  148  A    between atoms: _345  and  _346
REMARK  149  A    between atoms: _345  and  _348
REMARK  150  A    between atoms: _348  and  _349
REMARK  151  A    between atoms: _352  and  _354
REMARK  152  A    between atoms: _354  and  _355
REMARK  153  A    between atoms: _357  and  _359
REMARK  154  A    between atoms: _359  and  _360
REMARK  155  A    between atoms: _359  and  _362
REMARK  156  A    between atoms: _362  and  _363
REMARK  157  A    between atoms: _363  and  _364
REMARK  158  A    between atoms: _364  and  _365
REMARK  159  A    between atoms: _374  and  _376
REMARK  160  A    between atoms: _376  and  _377
REMARK  161  A    between atoms: _376  and  _379
REMARK  162  A    between atoms: _379  and  _380
REMARK  163  A    between atoms: _380  and  _381
REMARK  164  A    between atoms: _386  and  _388
REMARK  165  A    between atoms: _388  and  _389
REMARK  166  A    between atoms: _388  and  _391
REMARK  167  A    between atoms: _391  and  _392
REMARK  168  A    between atoms: _392  and  _393
REMARK  169  A    between atoms: _398  and  _400
REMARK  170  A    between atoms: _400  and  _401
REMARK  171  A    between atoms: _400  and  _403
REMARK  172  A    between atoms: _403  and  _404
REMARK  173  A    between atoms: _407  and  _409
REMARK  174  A    between atoms: _409  and  _410
REMARK  175  A    between atoms: _409  and  _412
REMARK  176  A    between atoms: _415  and  _417
REMARK  177  A    between atoms: _417  and  _418
REMARK  178  A    between atoms: _417  and  _420
REMARK  179  A    between atoms: _420  and  _421
REMARK  180  A    between atoms: _424  and  _426
REMARK  181  A    between atoms: _426  and  _427
REMARK  182  A    between atoms: _426  and  _429
REMARK  183  A    between atoms: _432  and  _434
REMARK  184  A    between atoms: _434  and  _435
REMARK  185  A    between atoms: _434  and  _437
REMARK  186  A    between atoms: _437  and  _438
REMARK  187  A    between atoms: _438  and  _439
REMARK  188  A    between atoms: _439  and  _440
REMARK  189  A    between atoms: _449  and  _451
REMARK  190  A    between atoms: _451  and  _452
REMARK  191  A    between atoms: _451  and  _454
REMARK  192  A    between atoms: _454  and  _455
REMARK  193  A    between atoms: _455  and  _456
REMARK  194  A    between atoms: _458  and  _460
REMARK  195  A    between atoms: _460  and  _461
REMARK  196  A    between atoms: _460  and  _463
REMARK  197  A    between atoms: _463  and  _464
REMARK  198  A    between atoms: _464  and  _465
REMARK  199  A    between atoms: _465  and  _466
REMARK  200  A    between atoms: _466  and  _467
REMARK  201  A    between atoms: _471  and  _473
REMARK  202  A    between atoms: _473  and  _474
REMARK  203  A    between atoms: _473  and  _476
REMARK  204  A    between atoms: _476  and  _477
REMARK  205  A    between atoms: _480  and  _482
REMARK  206  A    between atoms: _482  and  _483
REMARK  207  A    between atoms: _482  and  _485
REMARK  208  A    between atoms: _485  and  _486
REMARK  209  A    between atoms: _489  and  _491
REMARK  210  A    between atoms: _491  and  _492
REMARK  211  A    between atoms: _491  and  _494
REMARK  212  A    between atoms: _497  and  _499
REMARK  213  A    between atoms: _499  and  _500
REMARK  214  A    between atoms: _499  and  _502
REMARK  215  A    between atoms: _502  and  _503
REMARK  216  A    between atoms: _506  and  _508
REMARK  217  A    between atoms: _508  and  _509
REMARK  218  A    between atoms: _508  and  _511
REMARK  219  A    between atoms: _514  and  _516
REMARK  220  A    between atoms: _516  and  _517
REMARK  221  A    between atoms: _520  and  _522
REMARK  222  A    between atoms: _522  and  _523
REMARK  223  A    between atoms: _522  and  _525
REMARK  224  A    between atoms: _525  and  _526
REMARK  225  A    between atoms: _529  and  _531
REMARK  226  A    between atoms: _531  and  _532
REMARK  227  A    between atoms: _531  and  _534
REMARK  228  A    between atoms: _534  and  _535
REMARK  229  A    between atoms: _535  and  _536
REMARK  230  A    between atoms: _536  and  _537
REMARK  231  A    between atoms: _546  and  _548
REMARK  232  A    between atoms: _548  and  _549
REMARK  233  A    between atoms: _548  and  _551
REMARK  234  A    between atoms: _551  and  _552
REMARK  235  A    between atoms: _557  and  _559
REMARK  236  A    between atoms: _559  and  _560
REMARK  237  A    between atoms: _559  and  _562
REMARK  238  A    between atoms: _562  and  _563
REMARK  239  A    between atoms: _568  and  _569
REMARK                            x       y       z     vdW  Elec       q    Type
REMARK                         _______ _______ _______ _____ _____    ______ ____
ROOT
ATOM      1  O   HOH     1      12.035  30.111  -2.236  0.00  0.00    +0.000 OA
ENDROOT
TORSDOF 0
REMARK  Name = ../refined-set-2016/1vyg/1vyg_pocket.pdb
REMARK  239 active torsions:
REMARK  status: ('A' for Active; 'I' for Inactive)
REMARK    1  A    between atoms: _1  and  _3
REMARK    2  A    between atoms: _3  and  _4
REMARK    3  A    between atoms: _3  and  _6
REMARK    4  A    between atoms: _6  and  _7
REMARK    5  A    between atoms: _10  and  _12
REMARK    6  A    between atoms: _12  and  _13
REMARK    7  A    between atoms: _12  and  _15
REMARK    8  A    between atoms: _15  and  _16
REMARK    9  A    between atoms: _16  and  _17
REMARK   10  A    between atoms: _20  and  _22
REMARK   11  A    between atoms: _22  and  _23
REMARK   12  A    between atoms: _22  and  _25
REMARK   13  A    between atoms: _25  and  _26
REMARK   14  A    between atoms: _28  and  _30
REMARK   15  A    between atoms: _30  and  _31
REMARK   16  A    between atoms: _30  and  _33
REMARK   17  A    between atoms: _33  and  _34
REMARK   18  A    between atoms: _40  and  _42
REMARK   19  A    between atoms: _42  and  _43
REMARK   20  A    between atoms: _42  and  _45
REMARK   21  A    between atoms: _48  and  _50
REMARK   22  A    between atoms: _50  and  _51
REMARK   23  A    between atoms: _50  and  _53
REMARK   24  A    between atoms: _53  and  _54
REMARK   25  A    between atoms: _54  and  _55
REMARK   26  A    between atoms: _57  and  _59
REMARK   27  A    between atoms: _59  and  _60
REMARK   28  A    between atoms: _59  and  _62
REMARK   29  A    between atoms: _62  and  _63
REMARK   30  A    between atoms: _65  and  _67
REMARK   31  A    between atoms: _67  and  _68
REMARK   32  A    between atoms: _67  and  _70
REMARK   33  A    between atoms: _70  and  _71
REMARK   34  A    between atoms: _74  and  _76
REMARK   35  A    between atoms: _76  and  _77
REMARK   36  A    between atoms: _79  and  _81
REMARK   37  A    between atoms: _81  and  _82
REMARK   38  A    between atoms: _81  and  _84
REMARK   39  A    between atoms: _87  and  _89
REMARK   40  A    between atoms: _89  and  _90
REMARK   41  A    between atoms: _89  and  _92
REMARK   42  A    between atoms: _92  and  _93
REMARK   43  A    between atoms: _95  and  _97
REMARK   44  A    between atoms: _97  and  _98
REMARK   45  A    between atoms: _101  and  _103
REMARK   46  A    between atoms: _103  and  _104
REMARK   47  A    between atoms: _103  and  _106
REMARK   48  A    between atoms: _106  and  _107
REMARK   49  A    between atoms: _110  and  _112
REMARK   50  A    between atoms: _112  and  _113
REMARK   51  A    between atoms: _112  and  _115
REMARK   52  A    between atoms: _115  and  _116
REMARK   53  A    between atoms: _116  and  _117
REMARK   54  A    between atoms: _117  and  _118
REMARK   55  A    between atoms: _127  and  _129
REMARK   56  A    between atoms: _129  and  _130
REMARK   57  A    between atoms: _129  and  _132
REMARK   58  A    between atoms: _132  and  _133
REMARK   59  A    between atoms: _133  and  _134
REMARK   60  A    between atoms: _139  and  _141
REMARK   61  A    between atoms: _141  and  _142
REMARK   62  A    between atoms: _141  and  _144
REMARK   63  A    between atoms: _144  and  _145
REMARK   64  A    between atoms: _148  and  _150
REMARK   65  A    between atoms: _150  and  _151
REMARK   66  A    between atoms: _153  and  _155
REMARK   67  A    between atoms: _155  and  _156
REMARK   68  A    between atoms: _155  and  _158
REMARK   69  A    between atoms: _158  and  _159
REMARK   70  A    between atoms: _164  and  _166
REMARK   71  A    between atoms: _166  and  _167
REMARK   72  A    between atoms: _166  and  _169
REMARK   73  A    between atoms: _169  and  _170
REMARK   74  A    between atoms: _173  and  _175
REMARK   75  A    between atoms: _175  and  _176
REMARK   76  A    between atoms: _175  and  _178
REMARK   77  A    between atoms: _181  and  _183
REMARK   78  A    between atoms: _183  and  _184
REMARK   79  A    between atoms: _183  and  _186
REMARK   80  A    between atoms: _186  and  _187
REMARK   81  A    between atoms: _191  and  _192
REMARK   82  A    between atoms: _197  and  _199
REMARK   83  A    between atoms: _199  and  _200
REMARK   84  A    between atoms: _199  and  _202
REMARK   85  A    between atoms: _202  and  _203
REMARK   86  A    between atoms: _206  and  _208
REMARK   87  A    between atoms: _208  and  _209
REMARK   88  A    between atoms: _208  and  _211
REMARK   89  A    between atoms: _214  and  _216
REMARK   90  A    between atoms: _216  and  _217
REMARK   91  A    between atoms: _216  and  _219
REMARK   92  A    between atoms: _219  and  _220
REMARK   93  A    between atoms: _226  and  _228
REMARK   94  A    between atoms: _228  and  _229
REMARK   95  A    between atoms: _228  and  _231
REMARK   96  A    between atoms: _231  and  _232
REMARK   97  A    between atoms: _232  and  _233
REMARK   98  A    between atoms: _235  and  _237
REMARK   99  A    between atoms: _237  and  _238
REMARK  100  A    between atoms: _237  and  _240
REMARK  101  A    between atoms: _240  and  _241
REMARK  102  A    between atoms: _244  and  _246
REMARK  103  A    between atoms: _246  and  _247
REMARK  104  A    between atoms: _246  and  _249
REMARK  105  A    between atoms: _249  and  _250
REMARK  106  A    between atoms: _250  and  _251
REMARK  107  A    between atoms: _254  and  _256
REMARK  108  A    between atoms: _256  and  _257
REMARK  109  A    between atoms: _256  and  _259
REMARK  110  A    between atoms: _259  and  _260
REMARK  111  A    between atoms: _262  and  _264
REMARK  112  A    between atoms: _264  and  _265
REMARK  113  A    between atoms: _264  and  _267
REMARK  114  A    between atoms: _267  and  _268
REMARK  115  A    between atoms: _271  and  _273
REMARK  116  A    between atoms: _273  and  _274
REMARK  117  A    between atoms: _273  and  _276
REMARK  118  A    between atoms: _276  and  _277
REMARK  119  A    between atoms: _283  and  _285
REMARK  120  A    between atoms: _285  and  _286
REMARK  121  A    between atoms: _285  and  _288
REMARK  122  A    between atoms: _288  and  _289
REMARK  123  A    between atoms: _289  and  _290
REMARK  124  A    between atoms: _290  and  _291
REMARK  125  A    between atoms: _291  and  _292
REMARK  126  A    between atoms: _296  and  _298
REMARK  127  A    between atoms: _298  and  _299
REMARK  128  A    between atoms: _298  and  _301
REMARK  129  A    between atoms: _301  and  _302
REMARK  130  A    between atoms: _307  and  _309
REMARK  131  A    between atoms: _309  and  _310
REMARK  132  A    between atoms: _309  and  _312
REMARK  133  A    between atoms: _312  and  _313
REMARK  134  A    between atoms: _316  and  _318
REMARK  135  A    between atoms: _318  and  _319
REMARK  136  A    between atoms: _318  and  _321
REMARK  137  A    between atoms: _321  and  _322
REMARK  138  A    between atoms: _322  and  _323
REMARK  139  A    between atoms: _326  and  _328
REMARK  140  A    between atoms: _328  and  _329
REMARK  141  A    between atoms: _328  and  _331
REMARK  142  A    between atoms: _331  and  _332
REMARK  143  A    between atoms: _335  and  _337
REMARK  144  A    between atoms: _337  and  _338
REMARK  145  A    between atoms: _337  and  _340
REMARK  146  A    between atoms: _340  and  _341
REMARK  147  A    between atoms: _343  and  _345
REMARK  148  A    between atoms: _345  and  _346
REMARK  149  A    between atoms: _345  and  _348
REMARK  150  A    between atoms: _348  and  _349
REMARK  151  A    between atoms: _352  and  _354
REMARK  152  A    between atoms: _354  and  _355
REMARK  153  A    between atoms: _357  and  _359
REMARK  154  A    between atoms: _359  and  _360
REMARK  155  A    between atoms: _359  and  _362
REMARK  156  A    between atoms: _362  and  _363
REMARK  157  A    between atoms: _363  and  _364
REMARK  158  A    between atoms: _364  and  _365
REMARK  159  A    between atoms: _374  and  _376
REMARK  160  A    between atoms: _376  and  _377
REMARK  161  A    between atoms: _376  and  _379
REMARK  162  A    between atoms: _379  and  _380
REMARK  163  A    between atoms: _380  and  _381
REMARK  164  A    between atoms: _386  and  _388
REMARK  165  A    between atoms: _388  and  _389
REMARK  166  A    between atoms: _388  and  _391
REMARK  167  A    between atoms: _391  and  _392
REMARK  168  A    between atoms: _392  and  _393
REMARK  169  A    between atoms: _398  and  _400
REMARK  170  A    between atoms: _400  and  _401
REMARK  171  A    between atoms: _400  and  _403
REMARK  172  A    between atoms: _403  and  _404
REMARK  173  A    between atoms: _407  and  _409
REMARK  174  A    between atoms: _409  and  _410
REMARK  175  A    between atoms: _409  and  _412
REMARK  176  A    between atoms: _415  and  _417
REMARK  177  A    between atoms: _417  and  _418
REMARK  178  A    between atoms: _417  and  _420
REMARK  179  A    between atoms: _420  and  _421
REMARK  180  A    between atoms: _424  and  _426
REMARK  181  A    between atoms: _426  and  _427
REMARK  182  A    between atoms: _426  and  _429
REMARK  183  A    between atoms: _432  and  _434
REMARK  184  A    between atoms: _434  and  _435
REMARK  185  A    between atoms: _434  and  _437
REMARK  186  A    between atoms: _437  and  _438
REMARK  187  A    between atoms: _438  and  _439
REMARK  188  A    between atoms: _439  and  _440
REMARK  189  A    between atoms: _449  and  _451
REMARK  190  A    between atoms: _451  and  _452
REMARK  191  A    between atoms: _451  and  _454
REMARK  192  A    between atoms: _454  and  _455
REMARK  193  A    between atoms: _455  and  _456
REMARK  194  A    between atoms: _458  and  _460
REMARK  195  A    between atoms: _460  and  _461
REMARK  196  A    between atoms: _460  and  _463
REMARK  197  A    between atoms: _463  and  _464
REMARK  198  A    between atoms: _464  and  _465
REMARK  199  A    between atoms: _465  and  _466
REMARK  200  A    between atoms: _466  and  _467
REMARK  201  A    between atoms: _471  and  _473
REMARK  202  A    between atoms: _473  and  _474
REMARK  203  A    between atoms: _473  and  _476
REMARK  204  A    between atoms: _476  and  _477
REMARK  205  A    between atoms: _480  and  _482
REMARK  206  A    between atoms: _482  and  _483
REMARK  207  A    between atoms: _482  and  _485
REMARK  208  A    between atoms: _485  and  _486
REMARK  209  A    between atoms: _489  and  _491
REMARK  210  A    between atoms: _491  and  _492
REMARK  211  A    between atoms: _491  and  _494
REMARK  212  A    between atoms: _497  and  _499
REMARK  213  A    between atoms: _499  and  _500
REMARK  214  A    between atoms: _499  and  _502
REMARK  215  A    between atoms: _502  and  _503
REMARK  216  A    between atoms: _506  and  _508
REMARK  217  A    between atoms: _508  and  _509
REMARK  218  A    between atoms: _508  and  _511
REMARK  219  A    between atoms: _514  and  _516
REMARK  220  A    between atoms: _516  and  _517
REMARK  221  A    between atoms: _520  and  _522
REMARK  222  A    between atoms: _522  and  _523
REMARK  223  A    between atoms: _522  and  _525
REMARK  224  A    between atoms: _525  and  _526
REMARK  225  A    between atoms: _529  and  _531
REMARK  226  A    between atoms: _531  and  _532
REMARK  227  A    between atoms: _531  and  _534
REMARK  228  A    between atoms: _534  and  _535
REMARK  229  A    between atoms: _535  and  _536
REMARK  230  A    between atoms: _536  and  _537
REMARK  231  A    between atoms: _546  and  _548
REMARK  232  A    between atoms: _548  and  _549
REMARK  233  A    between atoms: _548  and  _551
REMARK  234  A    between atoms: _551  and  _552
REMARK  235  A    between atoms: _557  and  _559
REMARK  236  A    between atoms: _559  and  _560
REMARK  237  A    between atoms: _559  and  _562
REMARK  238  A    between atoms: _562  and  _563
REMARK  239  A    between atoms: _568  and  _569
REMARK                            x       y       z     vdW  Elec       q    Type
REMARK                         _______ _______ _______ _____ _____    ______ ____
ROOT
ATOM      1  O   HOH     1      17.285  38.798   9.629  0.00  0.00    +0.000 OA
ENDROOT
TORSDOF 0
REMARK  Name = ../refined-set-2016/1vyg/1vyg_pocket.pdb
REMARK  239 active torsions:
REMARK  status: ('A' for Active; 'I' for Inactive)
REMARK    1  A    between atoms: _1  and  _3
REMARK    2  A    between atoms: _3  and  _4
REMARK    3  A    between atoms: _3  and  _6
REMARK    4  A    between atoms: _6  and  _7
REMARK    5  A    between atoms: _10  and  _12
REMARK    6  A    between atoms: _12  and  _13
REMARK    7  A    between atoms: _12  and  _15
REMARK    8  A    between atoms: _15  and  _16
REMARK    9  A    between atoms: _16  and  _17
REMARK   10  A    between atoms: _20  and  _22
REMARK   11  A    between atoms: _22  and  _23
REMARK   12  A    between atoms: _22  and  _25
REMARK   13  A    between atoms: _25  and  _26
REMARK   14  A    between atoms: _28  and  _30
REMARK   15  A    between atoms: _30  and  _31
REMARK   16  A    between atoms: _30  and  _33
REMARK   17  A    between atoms: _33  and  _34
REMARK   18  A    between atoms: _40  and  _42
REMARK   19  A    between atoms: _42  and  _43
REMARK   20  A    between atoms: _42  and  _45
REMARK   21  A    between atoms: _48  and  _50
REMARK   22  A    between atoms: _50  and  _51
REMARK   23  A    between atoms: _50  and  _53
REMARK   24  A    between atoms: _53  and  _54
REMARK   25  A    between atoms: _54  and  _55
REMARK   26  A    between atoms: _57  and  _59
REMARK   27  A    between atoms: _59  and  _60
REMARK   28  A    between atoms: _59  and  _62
REMARK   29  A    between atoms: _62  and  _63
REMARK   30  A    between atoms: _65  and  _67
REMARK   31  A    between atoms: _67  and  _68
REMARK   32  A    between atoms: _67  and  _70
REMARK   33  A    between atoms: _70  and  _71
REMARK   34  A    between atoms: _74  and  _76
REMARK   35  A    between atoms: _76  and  _77
REMARK   36  A    between atoms: _79  and  _81
REMARK   37  A    between atoms: _81  and  _82
REMARK   38  A    between atoms: _81  and  _84
REMARK   39  A    between atoms: _87  and  _89
REMARK   40  A    between atoms: _89  and  _90
REMARK   41  A    between atoms: _89  and  _92
REMARK   42  A    between atoms: _92  and  _93
REMARK   43  A    between atoms: _95  and  _97
REMARK   44  A    between atoms: _97  and  _98
REMARK   45  A    between atoms: _101  and  _103
REMARK   46  A    between atoms: _103  and  _104
REMARK   47  A    between atoms: _103  and  _106
REMARK   48  A    between atoms: _106  and  _107
REMARK   49  A    between atoms: _110  and  _112
REMARK   50  A    between atoms: _112  and  _113
REMARK   51  A    between atoms: _112  and  _115
REMARK   52  A    between atoms: _115  and  _116
REMARK   53  A    between atoms: _116  and  _117
REMARK   54  A    between atoms: _117  and  _118
REMARK   55  A    between atoms: _127  and  _129
REMARK   56  A    between atoms: _129  and  _130
REMARK   57  A    between atoms: _129  and  _132
REMARK   58  A    between atoms: _132  and  _133
REMARK   59  A    between atoms: _133  and  _134
REMARK   60  A    between atoms: _139  and  _141
REMARK   61  A    between atoms: _141  and  _142
REMARK   62  A    between atoms: _141  and  _144
REMARK   63  A    between atoms: _144  and  _145
REMARK   64  A    between atoms: _148  and  _150
REMARK   65  A    between atoms: _150  and  _151
REMARK   66  A    between atoms: _153  and  _155
REMARK   67  A    between atoms: _155  and  _156
REMARK   68  A    between atoms: _155  and  _158
REMARK   69  A    between atoms: _158  and  _159
REMARK   70  A    between atoms: _164  and  _166
REMARK   71  A    between atoms: _166  and  _167
REMARK   72  A    between atoms: _166  and  _169
REMARK   73  A    between atoms: _169  and  _170
REMARK   74  A    between atoms: _173  and  _175
REMARK   75  A    between atoms: _175  and  _176
REMARK   76  A    between atoms: _175  and  _178
REMARK   77  A    between atoms: _181  and  _183
REMARK   78  A    between atoms: _183  and  _184
REMARK   79  A    between atoms: _183  and  _186
REMARK   80  A    between atoms: _186  and  _187
REMARK   81  A    between atoms: _191  and  _192
REMARK   82  A    between atoms: _197  and  _199
REMARK   83  A    between atoms: _199  and  _200
REMARK   84  A    between atoms: _199  and  _202
REMARK   85  A    between atoms: _202  and  _203
REMARK   86  A    between atoms: _206  and  _208
REMARK   87  A    between atoms: _208  and  _209
REMARK   88  A    between atoms: _208  and  _211
REMARK   89  A    between atoms: _214  and  _216
REMARK   90  A    between atoms: _216  and  _217
REMARK   91  A    between atoms: _216  and  _219
REMARK   92  A    between atoms: _219  and  _220
REMARK   93  A    between atoms: _226  and  _228
REMARK   94  A    between atoms: _228  and  _229
REMARK   95  A    between atoms: _228  and  _231
REMARK   96  A    between atoms: _231  and  _232
REMARK   97  A    between atoms: _232  and  _233
REMARK   98  A    between atoms: _235  and  _237
REMARK   99  A    between atoms: _237  and  _238
REMARK  100  A    between atoms: _237  and  _240
REMARK  101  A    between atoms: _240  and  _241
REMARK  102  A    between atoms: _244  and  _246
REMARK  103  A    between atoms: _246  and  _247
REMARK  104  A    between atoms: _246  and  _249
REMARK  105  A    between atoms: _249  and  _250
REMARK  106  A    between atoms: _250  and  _251
REMARK  107  A    between atoms: _254  and  _256
REMARK  108  A    between atoms: _256  and  _257
REMARK  109  A    between atoms: _256  and  _259
REMARK  110  A    between atoms: _259  and  _260
REMARK  111  A    between atoms: _262  and  _264
REMARK  112  A    between atoms: _264  and  _265
REMARK  113  A    between atoms: _264  and  _267
REMARK  114  A    between atoms: _267  and  _268
REMARK  115  A    between atoms: _271  and  _273
REMARK  116  A    between atoms: _273  and  _274
REMARK  117  A    between atoms: _273  and  _276
REMARK  118  A    between atoms: _276  and  _277
REMARK  119  A    between atoms: _283  and  _285
REMARK  120  A    between atoms: _285  and  _286
REMARK  121  A    between atoms: _285  and  _288
REMARK  122  A    between atoms: _288  and  _289
REMARK  123  A    between atoms: _289  and  _290
REMARK  124  A    between atoms: _290  and  _291
REMARK  125  A    between atoms: _291  and  _292
REMARK  126  A    between atoms: _296  and  _298
REMARK  127  A    between atoms: _298  and  _299
REMARK  128  A    between atoms: _298  and  _301
REMARK  129  A    between atoms: _301  and  _302
REMARK  130  A    between atoms: _307  and  _309
REMARK  131  A    between atoms: _309  and  _310
REMARK  132  A    between atoms: _309  and  _312
REMARK  133  A    between atoms: _312  and  _313
REMARK  134  A    between atoms: _316  and  _318
REMARK  135  A    between atoms: _318  and  _319
REMARK  136  A    between atoms: _318  and  _321
REMARK  137  A    between atoms: _321  and  _322
REMARK  138  A    between atoms: _322  and  _323
REMARK  139  A    between atoms: _326  and  _328
REMARK  140  A    between atoms: _328  and  _329
REMARK  141  A    between atoms: _328  and  _331
REMARK  142  A    between atoms: _331  and  _332
REMARK  143  A    between atoms: _335  and  _337
REMARK  144  A    between atoms: _337  and  _338
REMARK  145  A    between atoms: _337  and  _340
REMARK  146  A    between atoms: _340  and  _341
REMARK  147  A    between atoms: _343  and  _345
REMARK  148  A    between atoms: _345  and  _346
REMARK  149  A    between atoms: _345  and  _348
REMARK  150  A    between atoms: _348  and  _349
REMARK  151  A    between atoms: _352  and  _354
REMARK  152  A    between atoms: _354  and  _355
REMARK  153  A    between atoms: _357  and  _359
REMARK  154  A    between atoms: _359  and  _360
REMARK  155  A    between atoms: _359  and  _362
REMARK  156  A    between atoms: _362  and  _363
REMARK  157  A    between atoms: _363  and  _364
REMARK  158  A    between atoms: _364  and  _365
REMARK  159  A    between atoms: _374  and  _376
REMARK  160  A    between atoms: _376  and  _377
REMARK  161  A    between atoms: _376  and  _379
REMARK  162  A    between atoms: _379  and  _380
REMARK  163  A    between atoms: _380  and  _381
REMARK  164  A    between atoms: _386  and  _388
REMARK  165  A    between atoms: _388  and  _389
REMARK  166  A    between atoms: _388  and  _391
REMARK  167  A    between atoms: _391  and  _392
REMARK  168  A    between atoms: _392  and  _393
REMARK  169  A    between atoms: _398  and  _400
REMARK  170  A    between atoms: _400  and  _401
REMARK  171  A    between atoms: _400  and  _403
REMARK  172  A    between atoms: _403  and  _404
REMARK  173  A    between atoms: _407  and  _409
REMARK  174  A    between atoms: _409  and  _410
REMARK  175  A    between atoms: _409  and  _412
REMARK  176  A    between atoms: _415  and  _417
REMARK  177  A    between atoms: _417  and  _418
REMARK  178  A    between atoms: _417  and  _420
REMARK  179  A    between atoms: _420  and  _421
REMARK  180  A    between atoms: _424  and  _426
REMARK  181  A    between atoms: _426  and  _427
REMARK  182  A    between atoms: _426  and  _429
REMARK  183  A    between atoms: _432  and  _434
REMARK  184  A    between atoms: _434  and  _435
REMARK  185  A    between atoms: _434  and  _437
REMARK  186  A    between atoms: _437  and  _438
REMARK  187  A    between atoms: _438  and  _439
REMARK  188  A    between atoms: _439  and  _440
REMARK  189  A    between atoms: _449  and  _451
REMARK  190  A    between atoms: _451  and  _452
REMARK  191  A    between atoms: _451  and  _454
REMARK  192  A    between atoms: _454  and  _455
REMARK  193  A    between atoms: _455  and  _456
REMARK  194  A    between atoms: _458  and  _460
REMARK  195  A    between atoms: _460  and  _461
REMARK  196  A    between atoms: _460  and  _463
REMARK  197  A    between atoms: _463  and  _464
REMARK  198  A    between atoms: _464  and  _465
REMARK  199  A    between atoms: _465  and  _466
REMARK  200  A    between atoms: _466  and  _467
REMARK  201  A    between atoms: _471  and  _473
REMARK  202  A    between atoms: _473  and  _474
REMARK  203  A    between atoms: _473  and  _476
REMARK  204  A    between atoms: _476  and  _477
REMARK  205  A    between atoms: _480  and  _482
REMARK  206  A    between atoms: _482  and  _483
REMARK  207  A    between atoms: _482  and  _485
REMARK  208  A    between atoms: _485  and  _486
REMARK  209  A    between atoms: _489  and  _491
REMARK  210  A    between atoms: _491  and  _492
REMARK  211  A    between atoms: _491  and  _494
REMARK  212  A    between atoms: _497  and  _499
REMARK  213  A    between atoms: _499  and  _500
REMARK  214  A    between atoms: _499  and  _502
REMARK  215  A    between atoms: _502  and  _503
REMARK  216  A    between atoms: _506  and  _508
REMARK  217  A    between atoms: _508  and  _509
REMARK  218  A    between atoms: _508  and  _511
REMARK  219  A    between atoms: _514  and  _516
REMARK  220  A    between atoms: _516  and  _517
REMARK  221  A    between atoms: _520  and  _522
REMARK  222  A    between atoms: _522  and  _523
REMARK  223  A    between atoms: _522  and  _525
REMARK  224  A    between atoms: _525  and  _526
REMARK  225  A    between atoms: _529  and  _531
REMARK  226  A    between atoms: _531  and  _532
REMARK  227  A    between atoms: _531  and  _534
REMARK  228  A    between atoms: _534  and  _535
REMARK  229  A    between atoms: _535  and  _536
REMARK  230  A    between atoms: _536  and  _537
REMARK  231  A    between atoms: _546  and  _548
REMARK  232  A    between atoms: _548  and  _549
REMARK  233  A    between atoms: _548  and  _551
REMARK  234  A    between atoms: _551  and  _552
REMARK  235  A    between atoms: _557  and  _559
REMARK  236  A    between atoms: _559  and  _560
REMARK  237  A    between atoms: _559  and  _562
REMARK  238  A    between atoms: _562  and  _563
REMARK  239  A    between atoms: _568  and  _569
REMARK                            x       y       z     vdW  Elec       q    Type
REMARK                         _______ _______ _______ _____ _____    ______ ____
ROOT
ATOM      1  O   HOH     1      12.149  38.800  -2.549  0.00  0.00    +0.000 OA
ENDROOT
TORSDOF 0
REMARK  Name = ../refined-set-2016/1vyg/1vyg_pocket.pdb
REMARK  239 active torsions:
REMARK  status: ('A' for Active; 'I' for Inactive)
REMARK    1  A    between atoms: _1  and  _3
REMARK    2  A    between atoms: _3  and  _4
REMARK    3  A    between atoms: _3  and  _6
REMARK    4  A    between atoms: _6  and  _7
REMARK    5  A    between atoms: _10  and  _12
REMARK    6  A    between atoms: _12  and  _13
REMARK    7  A    between atoms: _12  and  _15
REMARK    8  A    between atoms: _15  and  _16
REMARK    9  A    between atoms: _16  and  _17
REMARK   10  A    between atoms: _20  and  _22
REMARK   11  A    between atoms: _22  and  _23
REMARK   12  A    between atoms: _22  and  _25
REMARK   13  A    between atoms: _25  and  _26
REMARK   14  A    between atoms: _28  and  _30
REMARK   15  A    between atoms: _30  and  _31
REMARK   16  A    between atoms: _30  and  _33
REMARK   17  A    between atoms: _33  and  _34
REMARK   18  A    between atoms: _40  and  _42
REMARK   19  A    between atoms: _42  and  _43
REMARK   20  A    between atoms: _42  and  _45
REMARK   21  A    between atoms: _48  and  _50
REMARK   22  A    between atoms: _50  and  _51
REMARK   23  A    between atoms: _50  and  _53
REMARK   24  A    between atoms: _53  and  _54
REMARK   25  A    between atoms: _54  and  _55
REMARK   26  A    between atoms: _57  and  _59
REMARK   27  A    between atoms: _59  and  _60
REMARK   28  A    between atoms: _59  and  _62
REMARK   29  A    between atoms: _62  and  _63
REMARK   30  A    between atoms: _65  and  _67
REMARK   31  A    between atoms: _67  and  _68
REMARK   32  A    between atoms: _67  and  _70
REMARK   33  A    between atoms: _70  and  _71
REMARK   34  A    between atoms: _74  and  _76
REMARK   35  A    between atoms: _76  and  _77
REMARK   36  A    between atoms: _79  and  _81
REMARK   37  A    between atoms: _81  and  _82
REMARK   38  A    between atoms: _81  and  _84
REMARK   39  A    between atoms: _87  and  _89
REMARK   40  A    between atoms: _89  and  _90
REMARK   41  A    between atoms: _89  and  _92
REMARK   42  A    between atoms: _92  and  _93
REMARK   43  A    between atoms: _95  and  _97
REMARK   44  A    between atoms: _97  and  _98
REMARK   45  A    between atoms: _101  and  _103
REMARK   46  A    between atoms: _103  and  _104
REMARK   47  A    between atoms: _103  and  _106
REMARK   48  A    between atoms: _106  and  _107
REMARK   49  A    between atoms: _110  and  _112
REMARK   50  A    between atoms: _112  and  _113
REMARK   51  A    between atoms: _112  and  _115
REMARK   52  A    between atoms: _115  and  _116
REMARK   53  A    between atoms: _116  and  _117
REMARK   54  A    between atoms: _117  and  _118
REMARK   55  A    between atoms: _127  and  _129
REMARK   56  A    between atoms: _129  and  _130
REMARK   57  A    between atoms: _129  and  _132
REMARK   58  A    between atoms: _132  and  _133
REMARK   59  A    between atoms: _133  and  _134
REMARK   60  A    between atoms: _139  and  _141
REMARK   61  A    between atoms: _141  and  _142
REMARK   62  A    between atoms: _141  and  _144
REMARK   63  A    between atoms: _144  and  _145
REMARK   64  A    between atoms: _148  and  _150
REMARK   65  A    between atoms: _150  and  _151
REMARK   66  A    between atoms: _153  and  _155
REMARK   67  A    between atoms: _155  and  _156
REMARK   68  A    between atoms: _155  and  _158
REMARK   69  A    between atoms: _158  and  _159
REMARK   70  A    between atoms: _164  and  _166
REMARK   71  A    between atoms: _166  and  _167
REMARK   72  A    between atoms: _166  and  _169
REMARK   73  A    between atoms: _169  and  _170
REMARK   74  A    between atoms: _173  and  _175
REMARK   75  A    between atoms: _175  and  _176
REMARK   76  A    between atoms: _175  and  _178
REMARK   77  A    between atoms: _181  and  _183
REMARK   78  A    between atoms: _183  and  _184
REMARK   79  A    between atoms: _183  and  _186
REMARK   80  A    between atoms: _186  and  _187
REMARK   81  A    between atoms: _191  and  _192
REMARK   82  A    between atoms: _197  and  _199
REMARK   83  A    between atoms: _199  and  _200
REMARK   84  A    between atoms: _199  and  _202
REMARK   85  A    between atoms: _202  and  _203
REMARK   86  A    between atoms: _206  and  _208
REMARK   87  A    between atoms: _208  and  _209
REMARK   88  A    between atoms: _208  and  _211
REMARK   89  A    between atoms: _214  and  _216
REMARK   90  A    between atoms: _216  and  _217
REMARK   91  A    between atoms: _216  and  _219
REMARK   92  A    between atoms: _219  and  _220
REMARK   93  A    between atoms: _226  and  _228
REMARK   94  A    between atoms: _228  and  _229
REMARK   95  A    between atoms: _228  and  _231
REMARK   96  A    between atoms: _231  and  _232
REMARK   97  A    between atoms: _232  and  _233
REMARK   98  A    between atoms: _235  and  _237
REMARK   99  A    between atoms: _237  and  _238
REMARK  100  A    between atoms: _237  and  _240
REMARK  101  A    between atoms: _240  and  _241
REMARK  102  A    between atoms: _244  and  _246
REMARK  103  A    between atoms: _246  and  _247
REMARK  104  A    between atoms: _246  and  _249
REMARK  105  A    between atoms: _249  and  _250
REMARK  106  A    between atoms: _250  and  _251
REMARK  107  A    between atoms: _254  and  _256
REMARK  108  A    between atoms: _256  and  _257
REMARK  109  A    between atoms: _256  and  _259
REMARK  110  A    between atoms: _259  and  _260
REMARK  111  A    between atoms: _262  and  _264
REMARK  112  A    between atoms: _264  and  _265
REMARK  113  A    between atoms: _264  and  _267
REMARK  114  A    between atoms: _267  and  _268
REMARK  115  A    between atoms: _271  and  _273
REMARK  116  A    between atoms: _273  and  _274
REMARK  117  A    between atoms: _273  and  _276
REMARK  118  A    between atoms: _276  and  _277
REMARK  119  A    between atoms: _283  and  _285
REMARK  120  A    between atoms: _285  and  _286
REMARK  121  A    between atoms: _285  and  _288
REMARK  122  A    between atoms: _288  and  _289
REMARK  123  A    between atoms: _289  and  _290
REMARK  124  A    between atoms: _290  and  _291
REMARK  125  A    between atoms: _291  and  _292
REMARK  126  A    between atoms: _296  and  _298
REMARK  127  A    between atoms: _298  and  _299
REMARK  128  A    between atoms: _298  and  _301
REMARK  129  A    between atoms: _301  and  _302
REMARK  130  A    between atoms: _307  and  _309
REMARK  131  A    between atoms: _309  and  _310
REMARK  132  A    between atoms: _309  and  _312
REMARK  133  A    between atoms: _312  and  _313
REMARK  134  A    between atoms: _316  and  _318
REMARK  135  A    between atoms: _318  and  _319
REMARK  136  A    between atoms: _318  and  _321
REMARK  137  A    between atoms: _321  and  _322
REMARK  138  A    between atoms: _322  and  _323
REMARK  139  A    between atoms: _326  and  _328
REMARK  140  A    between atoms: _328  and  _329
REMARK  141  A    between atoms: _328  and  _331
REMARK  142  A    between atoms: _331  and  _332
REMARK  143  A    between atoms: _335  and  _337
REMARK  144  A    between atoms: _337  and  _338
REMARK  145  A    between atoms: _337  and  _340
REMARK  146  A    between atoms: _340  and  _341
REMARK  147  A    between atoms: _343  and  _345
REMARK  148  A    between atoms: _345  and  _346
REMARK  149  A    between atoms: _345  and  _348
REMARK  150  A    between atoms: _348  and  _349
REMARK  151  A    between atoms: _352  and  _354
REMARK  152  A    between atoms: _354  and  _355
REMARK  153  A    between atoms: _357  and  _359
REMARK  154  A    between atoms: _359  and  _360
REMARK  155  A    between atoms: _359  and  _362
REMARK  156  A    between atoms: _362  and  _363
REMARK  157  A    between atoms: _363  and  _364
REMARK  158  A    between atoms: _364  and  _365
REMARK  159  A    between atoms: _374  and  _376
REMARK  160  A    between atoms: _376  and  _377
REMARK  161  A    between atoms: _376  and  _379
REMARK  162  A    between atoms: _379  and  _380
REMARK  163  A    between atoms: _380  and  _381
REMARK  164  A    between atoms: _386  and  _388
REMARK  165  A    between atoms: _388  and  _389
REMARK  166  A    between atoms: _388  and  _391
REMARK  167  A    between atoms: _391  and  _392
REMARK  168  A    between atoms: _392  and  _393
REMARK  169  A    between atoms: _398  and  _400
REMARK  170  A    between atoms: _400  and  _401
REMARK  171  A    between atoms: _400  and  _403
REMARK  172  A    between atoms: _403  and  _404
REMARK  173  A    between atoms: _407  and  _409
REMARK  174  A    between atoms: _409  and  _410
REMARK  175  A    between atoms: _409  and  _412
REMARK  176  A    between atoms: _415  and  _417
REMARK  177  A    between atoms: _417  and  _418
REMARK  178  A    between atoms: _417  and  _420
REMARK  179  A    between atoms: _420  and  _421
REMARK  180  A    between atoms: _424  and  _426
REMARK  181  A    between atoms: _426  and  _427
REMARK  182  A    between atoms: _426  and  _429
REMARK  183  A    between atoms: _432  and  _434
REMARK  184  A    between atoms: _434  and  _435
REMARK  185  A    between atoms: _434  and  _437
REMARK  186  A    between atoms: _437  and  _438
REMARK  187  A    between atoms: _438  and  _439
REMARK  188  A    between atoms: _439  and  _440
REMARK  189  A    between atoms: _449  and  _451
REMARK  190  A    between atoms: _451  and  _452
REMARK  191  A    between atoms: _451  and  _454
REMARK  192  A    between atoms: _454  and  _455
REMARK  193  A    between atoms: _455  and  _456
REMARK  194  A    between atoms: _458  and  _460
REMARK  195  A    between atoms: _460  and  _461
REMARK  196  A    between atoms: _460  and  _463
REMARK  197  A    between atoms: _463  and  _464
REMARK  198  A    between atoms: _464  and  _465
REMARK  199  A    between atoms: _465  and  _466
REMARK  200  A    between atoms: _466  and  _467
REMARK  201  A    between atoms: _471  and  _473
REMARK  202  A    between atoms: _473  and  _474
REMARK  203  A    between atoms: _473  and  _476
REMARK  204  A    between atoms: _476  and  _477
REMARK  205  A    between atoms: _480  and  _482
REMARK  206  A    between atoms: _482  and  _483
REMARK  207  A    between atoms: _482  and  _485
REMARK  208  A    between atoms: _485  and  _486
REMARK  209  A    between atoms: _489  and  _491
REMARK  210  A    between atoms: _491  and  _492
REMARK  211  A    between atoms: _491  and  _494
REMARK  212  A    between atoms: _497  and  _499
REMARK  213  A    between atoms: _499  and  _500
REMARK  214  A    between atoms: _499  and  _502
REMARK  215  A    between atoms: _502  and  _503
REMARK  216  A    between atoms: _506  and  _508
REMARK  217  A    between atoms: _508  and  _509
REMARK  218  A    between atoms: _508  and  _511
REMARK  219  A    between atoms: _514  and  _516
REMARK  220  A    between atoms: _516  and  _517
REMARK  221  A    between atoms: _520  and  _522
REMARK  222  A    between atoms: _522  and  _523
REMARK  223  A    between atoms: _522  and  _525
REMARK  224  A    between atoms: _525  and  _526
REMARK  225  A    between atoms: _529  and  _531
REMARK  226  A    between atoms: _531  and  _532
REMARK  227  A    between atoms: _531  and  _534
REMARK  228  A    between atoms: _534  and  _535
REMARK  229  A    between atoms: _535  and  _536
REMARK  230  A    between atoms: _536  and  _537
REMARK  231  A    between atoms: _546  and  _548
REMARK  232  A    between atoms: _548  and  _549
REMARK  233  A    between atoms: _548  and  _551
REMARK  234  A    between atoms: _551  and  _552
REMARK  235  A    between atoms: _557  and  _559
REMARK  236  A    between atoms: _559  and  _560
REMARK  237  A    between atoms: _559  and  _562
REMARK  238  A    between atoms: _562  and  _563
REMARK  239  A    between atoms: _568  and  _569
REMARK                            x       y       z     vdW  Elec       q    Type
REMARK                         _______ _______ _______ _____ _____    ______ ____
ROOT
ATOM      1  O   HOH     1      13.358  37.911  12.478  0.00  0.00    +0.000 OA
ENDROOT
TORSDOF 0
REMARK  Name = ../refined-set-2016/1vyg/1vyg_pocket.pdb
REMARK  239 active torsions:
REMARK  status: ('A' for Active; 'I' for Inactive)
REMARK    1  A    between atoms: _1  and  _3
REMARK    2  A    between atoms: _3  and  _4
REMARK    3  A    between atoms: _3  and  _6
REMARK    4  A    between atoms: _6  and  _7
REMARK    5  A    between atoms: _10  and  _12
REMARK    6  A    between atoms: _12  and  _13
REMARK    7  A    between atoms: _12  and  _15
REMARK    8  A    between atoms: _15  and  _16
REMARK    9  A    between atoms: _16  and  _17
REMARK   10  A    between atoms: _20  and  _22
REMARK   11  A    between atoms: _22  and  _23
REMARK   12  A    between atoms: _22  and  _25
REMARK   13  A    between atoms: _25  and  _26
REMARK   14  A    between atoms: _28  and  _30
REMARK   15  A    between atoms: _30  and  _31
REMARK   16  A    between atoms: _30  and  _33
REMARK   17  A    between atoms: _33  and  _34
REMARK   18  A    between atoms: _40  and  _42
REMARK   19  A    between atoms: _42  and  _43
REMARK   20  A    between atoms: _42  and  _45
REMARK   21  A    between atoms: _48  and  _50
REMARK   22  A    between atoms: _50  and  _51
REMARK   23  A    between atoms: _50  and  _53
REMARK   24  A    between atoms: _53  and  _54
REMARK   25  A    between atoms: _54  and  _55
REMARK   26  A    between atoms: _57  and  _59
REMARK   27  A    between atoms: _59  and  _60
REMARK   28  A    between atoms: _59  and  _62
REMARK   29  A    between atoms: _62  and  _63
REMARK   30  A    between atoms: _65  and  _67
REMARK   31  A    between atoms: _67  and  _68
REMARK   32  A    between atoms: _67  and  _70
REMARK   33  A    between atoms: _70  and  _71
REMARK   34  A    between atoms: _74  and  _76
REMARK   35  A    between atoms: _76  and  _77
REMARK   36  A    between atoms: _79  and  _81
REMARK   37  A    between atoms: _81  and  _82
REMARK   38  A    between atoms: _81  and  _84
REMARK   39  A    between atoms: _87  and  _89
REMARK   40  A    between atoms: _89  and  _90
REMARK   41  A    between atoms: _89  and  _92
REMARK   42  A    between atoms: _92  and  _93
REMARK   43  A    between atoms: _95  and  _97
REMARK   44  A    between atoms: _97  and  _98
REMARK   45  A    between atoms: _101  and  _103
REMARK   46  A    between atoms: _103  and  _104
REMARK   47  A    between atoms: _103  and  _106
REMARK   48  A    between atoms: _106  and  _107
REMARK   49  A    between atoms: _110  and  _112
REMARK   50  A    between atoms: _112  and  _113
REMARK   51  A    between atoms: _112  and  _115
REMARK   52  A    between atoms: _115  and  _116
REMARK   53  A    between atoms: _116  and  _117
REMARK   54  A    between atoms: _117  and  _118
REMARK   55  A    between atoms: _127  and  _129
REMARK   56  A    between atoms: _129  and  _130
REMARK   57  A    between atoms: _129  and  _132
REMARK   58  A    between atoms: _132  and  _133
REMARK   59  A    between atoms: _133  and  _134
REMARK   60  A    between atoms: _139  and  _141
REMARK   61  A    between atoms: _141  and  _142
REMARK   62  A    between atoms: _141  and  _144
REMARK   63  A    between atoms: _144  and  _145
REMARK   64  A    between atoms: _148  and  _150
REMARK   65  A    between atoms: _150  and  _151
REMARK   66  A    between atoms: _153  and  _155
REMARK   67  A    between atoms: _155  and  _156
REMARK   68  A    between atoms: _155  and  _158
REMARK   69  A    between atoms: _158  and  _159
REMARK   70  A    between atoms: _164  and  _166
REMARK   71  A    between atoms: _166  and  _167
REMARK   72  A    between atoms: _166  and  _169
REMARK   73  A    between atoms: _169  and  _170
REMARK   74  A    between atoms: _173  and  _175
REMARK   75  A    between atoms: _175  and  _176
REMARK   76  A    between atoms: _175  and  _178
REMARK   77  A    between atoms: _181  and  _183
REMARK   78  A    between atoms: _183  and  _184
REMARK   79  A    between atoms: _183  and  _186
REMARK   80  A    between atoms: _186  and  _187
REMARK   81  A    between atoms: _191  and  _192
REMARK   82  A    between atoms: _197  and  _199
REMARK   83  A    between atoms: _199  and  _200
REMARK   84  A    between atoms: _199  and  _202
REMARK   85  A    between atoms: _202  and  _203
REMARK   86  A    between atoms: _206  and  _208
REMARK   87  A    between atoms: _208  and  _209
REMARK   88  A    between atoms: _208  and  _211
REMARK   89  A    between atoms: _214  and  _216
REMARK   90  A    between atoms: _216  and  _217
REMARK   91  A    between atoms: _216  and  _219
REMARK   92  A    between atoms: _219  and  _220
REMARK   93  A    between atoms: _226  and  _228
REMARK   94  A    between atoms: _228  and  _229
REMARK   95  A    between atoms: _228  and  _231
REMARK   96  A    between atoms: _231  and  _232
REMARK   97  A    between atoms: _232  and  _233
REMARK   98  A    between atoms: _235  and  _237
REMARK   99  A    between atoms: _237  and  _238
REMARK  100  A    between atoms: _237  and  _240
REMARK  101  A    between atoms: _240  and  _241
REMARK  102  A    between atoms: _244  and  _246
REMARK  103  A    between atoms: _246  and  _247
REMARK  104  A    between atoms: _246  and  _249
REMARK  105  A    between atoms: _249  and  _250
REMARK  106  A    between atoms: _250  and  _251
REMARK  107  A    between atoms: _254  and  _256
REMARK  108  A    between atoms: _256  and  _257
REMARK  109  A    between atoms: _256  and  _259
REMARK  110  A    between atoms: _259  and  _260
REMARK  111  A    between atoms: _262  and  _264
REMARK  112  A    between atoms: _264  and  _265
REMARK  113  A    between atoms: _264  and  _267
REMARK  114  A    between atoms: _267  and  _268
REMARK  115  A    between atoms: _271  and  _273
REMARK  116  A    between atoms: _273  and  _274
REMARK  117  A    between atoms: _273  and  _276
REMARK  118  A    between atoms: _276  and  _277
REMARK  119  A    between atoms: _283  and  _285
REMARK  120  A    between atoms: _285  and  _286
REMARK  121  A    between atoms: _285  and  _288
REMARK  122  A    between atoms: _288  and  _289
REMARK  123  A    between atoms: _289  and  _290
REMARK  124  A    between atoms: _290  and  _291
REMARK  125  A    between atoms: _291  and  _292
REMARK  126  A    between atoms: _296  and  _298
REMARK  127  A    between atoms: _298  and  _299
REMARK  128  A    between atoms: _298  and  _301
REMARK  129  A    between atoms: _301  and  _302
REMARK  130  A    between atoms: _307  and  _309
REMARK  131  A    between atoms: _309  and  _310
REMARK  132  A    between atoms: _309  and  _312
REMARK  133  A    between atoms: _312  and  _313
REMARK  134  A    between atoms: _316  and  _318
REMARK  135  A    between atoms: _318  and  _319
REMARK  136  A    between atoms: _318  and  _321
REMARK  137  A    between atoms: _321  and  _322
REMARK  138  A    between atoms: _322  and  _323
REMARK  139  A    between atoms: _326  and  _328
REMARK  140  A    between atoms: _328  and  _329
REMARK  141  A    between atoms: _328  and  _331
REMARK  142  A    between atoms: _331  and  _332
REMARK  143  A    between atoms: _335  and  _337
REMARK  144  A    between atoms: _337  and  _338
REMARK  145  A    between atoms: _337  and  _340
REMARK  146  A    between atoms: _340  and  _341
REMARK  147  A    between atoms: _343  and  _345
REMARK  148  A    between atoms: _345  and  _346
REMARK  149  A    between atoms: _345  and  _348
REMARK  150  A    between atoms: _348  and  _349
REMARK  151  A    between atoms: _352  and  _354
REMARK  152  A    between atoms: _354  and  _355
REMARK  153  A    between atoms: _357  and  _359
REMARK  154  A    between atoms: _359  and  _360
REMARK  155  A    between atoms: _359  and  _362
REMARK  156  A    between atoms: _362  and  _363
REMARK  157  A    between atoms: _363  and  _364
REMARK  158  A    between atoms: _364  and  _365
REMARK  159  A    between atoms: _374  and  _376
REMARK  160  A    between atoms: _376  and  _377
REMARK  161  A    between atoms: _376  and  _379
REMARK  162  A    between atoms: _379  and  _380
REMARK  163  A    between atoms: _380  and  _381
REMARK  164  A    between atoms: _386  and  _388
REMARK  165  A    between atoms: _388  and  _389
REMARK  166  A    between atoms: _388  and  _391
REMARK  167  A    between atoms: _391  and  _392
REMARK  168  A    between atoms: _392  and  _393
REMARK  169  A    between atoms: _398  and  _400
REMARK  170  A    between atoms: _400  and  _401
REMARK  171  A    between atoms: _400  and  _403
REMARK  172  A    between atoms: _403  and  _404
REMARK  173  A    between atoms: _407  and  _409
REMARK  174  A    between atoms: _409  and  _410
REMARK  175  A    between atoms: _409  and  _412
REMARK  176  A    between atoms: _415  and  _417
REMARK  177  A    between atoms: _417  and  _418
REMARK  178  A    between atoms: _417  and  _420
REMARK  179  A    between atoms: _420  and  _421
REMARK  180  A    between atoms: _424  and  _426
REMARK  181  A    between atoms: _426  and  _427
REMARK  182  A    between atoms: _426  and  _429
REMARK  183  A    between atoms: _432  and  _434
REMARK  184  A    between atoms: _434  and  _435
REMARK  185  A    between atoms: _434  and  _437
REMARK  186  A    between atoms: _437  and  _438
REMARK  187  A    between atoms: _438  and  _439
REMARK  188  A    between atoms: _439  and  _440
REMARK  189  A    between atoms: _449  and  _451
REMARK  190  A    between atoms: _451  and  _452
REMARK  191  A    between atoms: _451  and  _454
REMARK  192  A    between atoms: _454  and  _455
REMARK  193  A    between atoms: _455  and  _456
REMARK  194  A    between atoms: _458  and  _460
REMARK  195  A    between atoms: _460  and  _461
REMARK  196  A    between atoms: _460  and  _463
REMARK  197  A    between atoms: _463  and  _464
REMARK  198  A    between atoms: _464  and  _465
REMARK  199  A    between atoms: _465  and  _466
REMARK  200  A    between atoms: _466  and  _467
REMARK  201  A    between atoms: _471  and  _473
REMARK  202  A    between atoms: _473  and  _474
REMARK  203  A    between atoms: _473  and  _476
REMARK  204  A    between atoms: _476  and  _477
REMARK  205  A    between atoms: _480  and  _482
REMARK  206  A    between atoms: _482  and  _483
REMARK  207  A    between atoms: _482  and  _485
REMARK  208  A    between atoms: _485  and  _486
REMARK  209  A    between atoms: _489  and  _491
REMARK  210  A    between atoms: _491  and  _492
REMARK  211  A    between atoms: _491  and  _494
REMARK  212  A    between atoms: _497  and  _499
REMARK  213  A    between atoms: _499  and  _500
REMARK  214  A    between atoms: _499  and  _502
REMARK  215  A    between atoms: _502  and  _503
REMARK  216  A    between atoms: _506  and  _508
REMARK  217  A    between atoms: _508  and  _509
REMARK  218  A    between atoms: _508  and  _511
REMARK  219  A    between atoms: _514  and  _516
REMARK  220  A    between atoms: _516  and  _517
REMARK  221  A    between atoms: _520  and  _522
REMARK  222  A    between atoms: _522  and  _523
REMARK  223  A    between atoms: _522  and  _525
REMARK  224  A    between atoms: _525  and  _526
REMARK  225  A    between atoms: _529  and  _531
REMARK  226  A    between atoms: _531  and  _532
REMARK  227  A    between atoms: _531  and  _534
REMARK  228  A    between atoms: _534  and  _535
REMARK  229  A    between atoms: _535  and  _536
REMARK  230  A    between atoms: _536  and  _537
REMARK  231  A    between atoms: _546  and  _548
REMARK  232  A    between atoms: _548  and  _549
REMARK  233  A    between atoms: _548  and  _551
REMARK  234  A    between atoms: _551  and  _552
REMARK  235  A    between atoms: _557  and  _559
REMARK  236  A    between atoms: _559  and  _560
REMARK  237  A    between atoms: _559  and  _562
REMARK  238  A    between atoms: _562  and  _563
REMARK  239  A    between atoms: _568  and  _569
REMARK                            x       y       z     vdW  Elec       q    Type
REMARK                         _______ _______ _______ _____ _____    ______ ____
ROOT
ATOM      1  O   HOH     1       7.531  39.881  11.713  0.00  0.00    +0.000 OA
ENDROOT
TORSDOF 0
REMARK  Name = ../refined-set-2016/1vyg/1vyg_pocket.pdb
REMARK  239 active torsions:
REMARK  status: ('A' for Active; 'I' for Inactive)
REMARK    1  A    between atoms: _1  and  _3
REMARK    2  A    between atoms: _3  and  _4
REMARK    3  A    between atoms: _3  and  _6
REMARK    4  A    between atoms: _6  and  _7
REMARK    5  A    between atoms: _10  and  _12
REMARK    6  A    between atoms: _12  and  _13
REMARK    7  A    between atoms: _12  and  _15
REMARK    8  A    between atoms: _15  and  _16
REMARK    9  A    between atoms: _16  and  _17
REMARK   10  A    between atoms: _20  and  _22
REMARK   11  A    between atoms: _22  and  _23
REMARK   12  A    between atoms: _22  and  _25
REMARK   13  A    between atoms: _25  and  _26
REMARK   14  A    between atoms: _28  and  _30
REMARK   15  A    between atoms: _30  and  _31
REMARK   16  A    between atoms: _30  and  _33
REMARK   17  A    between atoms: _33  and  _34
REMARK   18  A    between atoms: _40  and  _42
REMARK   19  A    between atoms: _42  and  _43
REMARK   20  A    between atoms: _42  and  _45
REMARK   21  A    between atoms: _48  and  _50
REMARK   22  A    between atoms: _50  and  _51
REMARK   23  A    between atoms: _50  and  _53
REMARK   24  A    between atoms: _53  and  _54
REMARK   25  A    between atoms: _54  and  _55
REMARK   26  A    between atoms: _57  and  _59
REMARK   27  A    between atoms: _59  and  _60
REMARK   28  A    between atoms: _59  and  _62
REMARK   29  A    between atoms: _62  and  _63
REMARK   30  A    between atoms: _65  and  _67
REMARK   31  A    between atoms: _67  and  _68
REMARK   32  A    between atoms: _67  and  _70
REMARK   33  A    between atoms: _70  and  _71
REMARK   34  A    between atoms: _74  and  _76
REMARK   35  A    between atoms: _76  and  _77
REMARK   36  A    between atoms: _79  and  _81
REMARK   37  A    between atoms: _81  and  _82
REMARK   38  A    between atoms: _81  and  _84
REMARK   39  A    between atoms: _87  and  _89
REMARK   40  A    between atoms: _89  and  _90
REMARK   41  A    between atoms: _89  and  _92
REMARK   42  A    between atoms: _92  and  _93
REMARK   43  A    between atoms: _95  and  _97
REMARK   44  A    between atoms: _97  and  _98
REMARK   45  A    between atoms: _101  and  _103
REMARK   46  A    between atoms: _103  and  _104
REMARK   47  A    between atoms: _103  and  _106
REMARK   48  A    between atoms: _106  and  _107
REMARK   49  A    between atoms: _110  and  _112
REMARK   50  A    between atoms: _112  and  _113
REMARK   51  A    between atoms: _112  and  _115
REMARK   52  A    between atoms: _115  and  _116
REMARK   53  A    between atoms: _116  and  _117
REMARK   54  A    between atoms: _117  and  _118
REMARK   55  A    between atoms: _127  and  _129
REMARK   56  A    between atoms: _129  and  _130
REMARK   57  A    between atoms: _129  and  _132
REMARK   58  A    between atoms: _132  and  _133
REMARK   59  A    between atoms: _133  and  _134
REMARK   60  A    between atoms: _139  and  _141
REMARK   61  A    between atoms: _141  and  _142
REMARK   62  A    between atoms: _141  and  _144
REMARK   63  A    between atoms: _144  and  _145
REMARK   64  A    between atoms: _148  and  _150
REMARK   65  A    between atoms: _150  and  _151
REMARK   66  A    between atoms: _153  and  _155
REMARK   67  A    between atoms: _155  and  _156
REMARK   68  A    between atoms: _155  and  _158
REMARK   69  A    between atoms: _158  and  _159
REMARK   70  A    between atoms: _164  and  _166
REMARK   71  A    between atoms: _166  and  _167
REMARK   72  A    between atoms: _166  and  _169
REMARK   73  A    between atoms: _169  and  _170
REMARK   74  A    between atoms: _173  and  _175
REMARK   75  A    between atoms: _175  and  _176
REMARK   76  A    between atoms: _175  and  _178
REMARK   77  A    between atoms: _181  and  _183
REMARK   78  A    between atoms: _183  and  _184
REMARK   79  A    between atoms: _183  and  _186
REMARK   80  A    between atoms: _186  and  _187
REMARK   81  A    between atoms: _191  and  _192
REMARK   82  A    between atoms: _197  and  _199
REMARK   83  A    between atoms: _199  and  _200
REMARK   84  A    between atoms: _199  and  _202
REMARK   85  A    between atoms: _202  and  _203
REMARK   86  A    between atoms: _206  and  _208
REMARK   87  A    between atoms: _208  and  _209
REMARK   88  A    between atoms: _208  and  _211
REMARK   89  A    between atoms: _214  and  _216
REMARK   90  A    between atoms: _216  and  _217
REMARK   91  A    between atoms: _216  and  _219
REMARK   92  A    between atoms: _219  and  _220
REMARK   93  A    between atoms: _226  and  _228
REMARK   94  A    between atoms: _228  and  _229
REMARK   95  A    between atoms: _228  and  _231
REMARK   96  A    between atoms: _231  and  _232
REMARK   97  A    between atoms: _232  and  _233
REMARK   98  A    between atoms: _235  and  _237
REMARK   99  A    between atoms: _237  and  _238
REMARK  100  A    between atoms: _237  and  _240
REMARK  101  A    between atoms: _240  and  _241
REMARK  102  A    between atoms: _244  and  _246
REMARK  103  A    between atoms: _246  and  _247
REMARK  104  A    between atoms: _246  and  _249
REMARK  105  A    between atoms: _249  and  _250
REMARK  106  A    between atoms: _250  and  _251
REMARK  107  A    between atoms: _254  and  _256
REMARK  108  A    between atoms: _256  and  _257
REMARK  109  A    between atoms: _256  and  _259
REMARK  110  A    between atoms: _259  and  _260
REMARK  111  A    between atoms: _262  and  _264
REMARK  112  A    between atoms: _264  and  _265
REMARK  113  A    between atoms: _264  and  _267
REMARK  114  A    between atoms: _267  and  _268
REMARK  115  A    between atoms: _271  and  _273
REMARK  116  A    between atoms: _273  and  _274
REMARK  117  A    between atoms: _273  and  _276
REMARK  118  A    between atoms: _276  and  _277
REMARK  119  A    between atoms: _283  and  _285
REMARK  120  A    between atoms: _285  and  _286
REMARK  121  A    between atoms: _285  and  _288
REMARK  122  A    between atoms: _288  and  _289
REMARK  123  A    between atoms: _289  and  _290
REMARK  124  A    between atoms: _290  and  _291
REMARK  125  A    between atoms: _291  and  _292
REMARK  126  A    between atoms: _296  and  _298
REMARK  127  A    between atoms: _298  and  _299
REMARK  128  A    between atoms: _298  and  _301
REMARK  129  A    between atoms: _301  and  _302
REMARK  130  A    between atoms: _307  and  _309
REMARK  131  A    between atoms: _309  and  _310
REMARK  132  A    between atoms: _309  and  _312
REMARK  133  A    between atoms: _312  and  _313
REMARK  134  A    between atoms: _316  and  _318
REMARK  135  A    between atoms: _318  and  _319
REMARK  136  A    between atoms: _318  and  _321
REMARK  137  A    between atoms: _321  and  _322
REMARK  138  A    between atoms: _322  and  _323
REMARK  139  A    between atoms: _326  and  _328
REMARK  140  A    between atoms: _328  and  _329
REMARK  141  A    between atoms: _328  and  _331
REMARK  142  A    between atoms: _331  and  _332
REMARK  143  A    between atoms: _335  and  _337
REMARK  144  A    between atoms: _337  and  _338
REMARK  145  A    between atoms: _337  and  _340
REMARK  146  A    between atoms: _340  and  _341
REMARK  147  A    between atoms: _343  and  _345
REMARK  148  A    between atoms: _345  and  _346
REMARK  149  A    between atoms: _345  and  _348
REMARK  150  A    between atoms: _348  and  _349
REMARK  151  A    between atoms: _352  and  _354
REMARK  152  A    between atoms: _354  and  _355
REMARK  153  A    between atoms: _357  and  _359
REMARK  154  A    between atoms: _359  and  _360
REMARK  155  A    between atoms: _359  and  _362
REMARK  156  A    between atoms: _362  and  _363
REMARK  157  A    between atoms: _363  and  _364
REMARK  158  A    between atoms: _364  and  _365
REMARK  159  A    between atoms: _374  and  _376
REMARK  160  A    between atoms: _376  and  _377
REMARK  161  A    between atoms: _376  and  _379
REMARK  162  A    between atoms: _379  and  _380
REMARK  163  A    between atoms: _380  and  _381
REMARK  164  A    between atoms: _386  and  _388
REMARK  165  A    between atoms: _388  and  _389
REMARK  166  A    between atoms: _388  and  _391
REMARK  167  A    between atoms: _391  and  _392
REMARK  168  A    between atoms: _392  and  _393
REMARK  169  A    between atoms: _398  and  _400
REMARK  170  A    between atoms: _400  and  _401
REMARK  171  A    between atoms: _400  and  _403
REMARK  172  A    between atoms: _403  and  _404
REMARK  173  A    between atoms: _407  and  _409
REMARK  174  A    between atoms: _409  and  _410
REMARK  175  A    between atoms: _409  and  _412
REMARK  176  A    between atoms: _415  and  _417
REMARK  177  A    between atoms: _417  and  _418
REMARK  178  A    between atoms: _417  and  _420
REMARK  179  A    between atoms: _420  and  _421
REMARK  180  A    between atoms: _424  and  _426
REMARK  181  A    between atoms: _426  and  _427
REMARK  182  A    between atoms: _426  and  _429
REMARK  183  A    between atoms: _432  and  _434
REMARK  184  A    between atoms: _434  and  _435
REMARK  185  A    between atoms: _434  and  _437
REMARK  186  A    between atoms: _437  and  _438
REMARK  187  A    between atoms: _438  and  _439
REMARK  188  A    between atoms: _439  and  _440
REMARK  189  A    between atoms: _449  and  _451
REMARK  190  A    between atoms: _451  and  _452
REMARK  191  A    between atoms: _451  and  _454
REMARK  192  A    between atoms: _454  and  _455
REMARK  193  A    between atoms: _455  and  _456
REMARK  194  A    between atoms: _458  and  _460
REMARK  195  A    between atoms: _460  and  _461
REMARK  196  A    between atoms: _460  and  _463
REMARK  197  A    between atoms: _463  and  _464
REMARK  198  A    between atoms: _464  and  _465
REMARK  199  A    between atoms: _465  and  _466
REMARK  200  A    between atoms: _466  and  _467
REMARK  201  A    between atoms: _471  and  _473
REMARK  202  A    between atoms: _473  and  _474
REMARK  203  A    between atoms: _473  and  _476
REMARK  204  A    between atoms: _476  and  _477
REMARK  205  A    between atoms: _480  and  _482
REMARK  206  A    between atoms: _482  and  _483
REMARK  207  A    between atoms: _482  and  _485
REMARK  208  A    between atoms: _485  and  _486
REMARK  209  A    between atoms: _489  and  _491
REMARK  210  A    between atoms: _491  and  _492
REMARK  211  A    between atoms: _491  and  _494
REMARK  212  A    between atoms: _497  and  _499
REMARK  213  A    between atoms: _499  and  _500
REMARK  214  A    between atoms: _499  and  _502
REMARK  215  A    between atoms: _502  and  _503
REMARK  216  A    between atoms: _506  and  _508
REMARK  217  A    between atoms: _508  and  _509
REMARK  218  A    between atoms: _508  and  _511
REMARK  219  A    between atoms: _514  and  _516
REMARK  220  A    between atoms: _516  and  _517
REMARK  221  A    between atoms: _520  and  _522
REMARK  222  A    between atoms: _522  and  _523
REMARK  223  A    between atoms: _522  and  _525
REMARK  224  A    between atoms: _525  and  _526
REMARK  225  A    between atoms: _529  and  _531
REMARK  226  A    between atoms: _531  and  _532
REMARK  227  A    between atoms: _531  and  _534
REMARK  228  A    between atoms: _534  and  _535
REMARK  229  A    between atoms: _535  and  _536
REMARK  230  A    between atoms: _536  and  _537
REMARK  231  A    between atoms: _546  and  _548
REMARK  232  A    between atoms: _548  and  _549
REMARK  233  A    between atoms: _548  and  _551
REMARK  234  A    between atoms: _551  and  _552
REMARK  235  A    between atoms: _557  and  _559
REMARK  236  A    between atoms: _559  and  _560
REMARK  237  A    between atoms: _559  and  _562
REMARK  238  A    between atoms: _562  and  _563
REMARK  239  A    between atoms: _568  and  _569
REMARK                            x       y       z     vdW  Elec       q    Type
REMARK                         _______ _______ _______ _____ _____    ______ ____
ROOT
ATOM      1  O   HOH     1       3.577  31.786  12.473  0.00  0.00    +0.000 OA
ENDROOT
TORSDOF 0
REMARK  Name = ../refined-set-2016/1vyg/1vyg_pocket.pdb
REMARK  239 active torsions:
REMARK  status: ('A' for Active; 'I' for Inactive)
REMARK    1  A    between atoms: _1  and  _3
REMARK    2  A    between atoms: _3  and  _4
REMARK    3  A    between atoms: _3  and  _6
REMARK    4  A    between atoms: _6  and  _7
REMARK    5  A    between atoms: _10  and  _12
REMARK    6  A    between atoms: _12  and  _13
REMARK    7  A    between atoms: _12  and  _15
REMARK    8  A    between atoms: _15  and  _16
REMARK    9  A    between atoms: _16  and  _17
REMARK   10  A    between atoms: _20  and  _22
REMARK   11  A    between atoms: _22  and  _23
REMARK   12  A    between atoms: _22  and  _25
REMARK   13  A    between atoms: _25  and  _26
REMARK   14  A    between atoms: _28  and  _30
REMARK   15  A    between atoms: _30  and  _31
REMARK   16  A    between atoms: _30  and  _33
REMARK   17  A    between atoms: _33  and  _34
REMARK   18  A    between atoms: _40  and  _42
REMARK   19  A    between atoms: _42  and  _43
REMARK   20  A    between atoms: _42  and  _45
REMARK   21  A    between atoms: _48  and  _50
REMARK   22  A    between atoms: _50  and  _51
REMARK   23  A    between atoms: _50  and  _53
REMARK   24  A    between atoms: _53  and  _54
REMARK   25  A    between atoms: _54  and  _55
REMARK   26  A    between atoms: _57  and  _59
REMARK   27  A    between atoms: _59  and  _60
REMARK   28  A    between atoms: _59  and  _62
REMARK   29  A    between atoms: _62  and  _63
REMARK   30  A    between atoms: _65  and  _67
REMARK   31  A    between atoms: _67  and  _68
REMARK   32  A    between atoms: _67  and  _70
REMARK   33  A    between atoms: _70  and  _71
REMARK   34  A    between atoms: _74  and  _76
REMARK   35  A    between atoms: _76  and  _77
REMARK   36  A    between atoms: _79  and  _81
REMARK   37  A    between atoms: _81  and  _82
REMARK   38  A    between atoms: _81  and  _84
REMARK   39  A    between atoms: _87  and  _89
REMARK   40  A    between atoms: _89  and  _90
REMARK   41  A    between atoms: _89  and  _92
REMARK   42  A    between atoms: _92  and  _93
REMARK   43  A    between atoms: _95  and  _97
REMARK   44  A    between atoms: _97  and  _98
REMARK   45  A    between atoms: _101  and  _103
REMARK   46  A    between atoms: _103  and  _104
REMARK   47  A    between atoms: _103  and  _106
REMARK   48  A    between atoms: _106  and  _107
REMARK   49  A    between atoms: _110  and  _112
REMARK   50  A    between atoms: _112  and  _113
REMARK   51  A    between atoms: _112  and  _115
REMARK   52  A    between atoms: _115  and  _116
REMARK   53  A    between atoms: _116  and  _117
REMARK   54  A    between atoms: _117  and  _118
REMARK   55  A    between atoms: _127  and  _129
REMARK   56  A    between atoms: _129  and  _130
REMARK   57  A    between atoms: _129  and  _132
REMARK   58  A    between atoms: _132  and  _133
REMARK   59  A    between atoms: _133  and  _134
REMARK   60  A    between atoms: _139  and  _141
REMARK   61  A    between atoms: _141  and  _142
REMARK   62  A    between atoms: _141  and  _144
REMARK   63  A    between atoms: _144  and  _145
REMARK   64  A    between atoms: _148  and  _150
REMARK   65  A    between atoms: _150  and  _151
REMARK   66  A    between atoms: _153  and  _155
REMARK   67  A    between atoms: _155  and  _156
REMARK   68  A    between atoms: _155  and  _158
REMARK   69  A    between atoms: _158  and  _159
REMARK   70  A    between atoms: _164  and  _166
REMARK   71  A    between atoms: _166  and  _167
REMARK   72  A    between atoms: _166  and  _169
REMARK   73  A    between atoms: _169  and  _170
REMARK   74  A    between atoms: _173  and  _175
REMARK   75  A    between atoms: _175  and  _176
REMARK   76  A    between atoms: _175  and  _178
REMARK   77  A    between atoms: _181  and  _183
REMARK   78  A    between atoms: _183  and  _184
REMARK   79  A    between atoms: _183  and  _186
REMARK   80  A    between atoms: _186  and  _187
REMARK   81  A    between atoms: _191  and  _192
REMARK   82  A    between atoms: _197  and  _199
REMARK   83  A    between atoms: _199  and  _200
REMARK   84  A    between atoms: _199  and  _202
REMARK   85  A    between atoms: _202  and  _203
REMARK   86  A    between atoms: _206  and  _208
REMARK   87  A    between atoms: _208  and  _209
REMARK   88  A    between atoms: _208  and  _211
REMARK   89  A    between atoms: _214  and  _216
REMARK   90  A    between atoms: _216  and  _217
REMARK   91  A    between atoms: _216  and  _219
REMARK   92  A    between atoms: _219  and  _220
REMARK   93  A    between atoms: _226  and  _228
REMARK   94  A    between atoms: _228  and  _229
REMARK   95  A    between atoms: _228  and  _231
REMARK   96  A    between atoms: _231  and  _232
REMARK   97  A    between atoms: _232  and  _233
REMARK   98  A    between atoms: _235  and  _237
REMARK   99  A    between atoms: _237  and  _238
REMARK  100  A    between atoms: _237  and  _240
REMARK  101  A    between atoms: _240  and  _241
REMARK  102  A    between atoms: _244  and  _246
REMARK  103  A    between atoms: _246  and  _247
REMARK  104  A    between atoms: _246  and  _249
REMARK  105  A    between atoms: _249  and  _250
REMARK  106  A    between atoms: _250  and  _251
REMARK  107  A    between atoms: _254  and  _256
REMARK  108  A    between atoms: _256  and  _257
REMARK  109  A    between atoms: _256  and  _259
REMARK  110  A    between atoms: _259  and  _260
REMARK  111  A    between atoms: _262  and  _264
REMARK  112  A    between atoms: _264  and  _265
REMARK  113  A    between atoms: _264  and  _267
REMARK  114  A    between atoms: _267  and  _268
REMARK  115  A    between atoms: _271  and  _273
REMARK  116  A    between atoms: _273  and  _274
REMARK  117  A    between atoms: _273  and  _276
REMARK  118  A    between atoms: _276  and  _277
REMARK  119  A    between atoms: _283  and  _285
REMARK  120  A    between atoms: _285  and  _286
REMARK  121  A    between atoms: _285  and  _288
REMARK  122  A    between atoms: _288  and  _289
REMARK  123  A    between atoms: _289  and  _290
REMARK  124  A    between atoms: _290  and  _291
REMARK  125  A    between atoms: _291  and  _292
REMARK  126  A    between atoms: _296  and  _298
REMARK  127  A    between atoms: _298  and  _299
REMARK  128  A    between atoms: _298  and  _301
REMARK  129  A    between atoms: _301  and  _302
REMARK  130  A    between atoms: _307  and  _309
REMARK  131  A    between atoms: _309  and  _310
REMARK  132  A    between atoms: _309  and  _312
REMARK  133  A    between atoms: _312  and  _313
REMARK  134  A    between atoms: _316  and  _318
REMARK  135  A    between atoms: _318  and  _319
REMARK  136  A    between atoms: _318  and  _321
REMARK  137  A    between atoms: _321  and  _322
REMARK  138  A    between atoms: _322  and  _323
REMARK  139  A    between atoms: _326  and  _328
REMARK  140  A    between atoms: _328  and  _329
REMARK  141  A    between atoms: _328  and  _331
REMARK  142  A    between atoms: _331  and  _332
REMARK  143  A    between atoms: _335  and  _337
REMARK  144  A    between atoms: _337  and  _338
REMARK  145  A    between atoms: _337  and  _340
REMARK  146  A    between atoms: _340  and  _341
REMARK  147  A    between atoms: _343  and  _345
REMARK  148  A    between atoms: _345  and  _346
REMARK  149  A    between atoms: _345  and  _348
REMARK  150  A    between atoms: _348  and  _349
REMARK  151  A    between atoms: _352  and  _354
REMARK  152  A    between atoms: _354  and  _355
REMARK  153  A    between atoms: _357  and  _359
REMARK  154  A    between atoms: _359  and  _360
REMARK  155  A    between atoms: _359  and  _362
REMARK  156  A    between atoms: _362  and  _363
REMARK  157  A    between atoms: _363  and  _364
REMARK  158  A    between atoms: _364  and  _365
REMARK  159  A    between atoms: _374  and  _376
REMARK  160  A    between atoms: _376  and  _377
REMARK  161  A    between atoms: _376  and  _379
REMARK  162  A    between atoms: _379  and  _380
REMARK  163  A    between atoms: _380  and  _381
REMARK  164  A    between atoms: _386  and  _388
REMARK  165  A    between atoms: _388  and  _389
REMARK  166  A    between atoms: _388  and  _391
REMARK  167  A    between atoms: _391  and  _392
REMARK  168  A    between atoms: _392  and  _393
REMARK  169  A    between atoms: _398  and  _400
REMARK  170  A    between atoms: _400  and  _401
REMARK  171  A    between atoms: _400  and  _403
REMARK  172  A    between atoms: _403  and  _404
REMARK  173  A    between atoms: _407  and  _409
REMARK  174  A    between atoms: _409  and  _410
REMARK  175  A    between atoms: _409  and  _412
REMARK  176  A    between atoms: _415  and  _417
REMARK  177  A    between atoms: _417  and  _418
REMARK  178  A    between atoms: _417  and  _420
REMARK  179  A    between atoms: _420  and  _421
REMARK  180  A    between atoms: _424  and  _426
REMARK  181  A    between atoms: _426  and  _427
REMARK  182  A    between atoms: _426  and  _429
REMARK  183  A    between atoms: _432  and  _434
REMARK  184  A    between atoms: _434  and  _435
REMARK  185  A    between atoms: _434  and  _437
REMARK  186  A    between atoms: _437  and  _438
REMARK  187  A    between atoms: _438  and  _439
REMARK  188  A    between atoms: _439  and  _440
REMARK  189  A    between atoms: _449  and  _451
REMARK  190  A    between atoms: _451  and  _452
REMARK  191  A    between atoms: _451  and  _454
REMARK  192  A    between atoms: _454  and  _455
REMARK  193  A    between atoms: _455  and  _456
REMARK  194  A    between atoms: _458  and  _460
REMARK  195  A    between atoms: _460  and  _461
REMARK  196  A    between atoms: _460  and  _463
REMARK  197  A    between atoms: _463  and  _464
REMARK  198  A    between atoms: _464  and  _465
REMARK  199  A    between atoms: _465  and  _466
REMARK  200  A    between atoms: _466  and  _467
REMARK  201  A    between atoms: _471  and  _473
REMARK  202  A    between atoms: _473  and  _474
REMARK  203  A    between atoms: _473  and  _476
REMARK  204  A    between atoms: _476  and  _477
REMARK  205  A    between atoms: _480  and  _482
REMARK  206  A    between atoms: _482  and  _483
REMARK  207  A    between atoms: _482  and  _485
REMARK  208  A    between atoms: _485  and  _486
REMARK  209  A    between atoms: _489  and  _491
REMARK  210  A    between atoms: _491  and  _492
REMARK  211  A    between atoms: _491  and  _494
REMARK  212  A    between atoms: _497  and  _499
REMARK  213  A    between atoms: _499  and  _500
REMARK  214  A    between atoms: _499  and  _502
REMARK  215  A    between atoms: _502  and  _503
REMARK  216  A    between atoms: _506  and  _508
REMARK  217  A    between atoms: _508  and  _509
REMARK  218  A    between atoms: _508  and  _511
REMARK  219  A    between atoms: _514  and  _516
REMARK  220  A    between atoms: _516  and  _517
REMARK  221  A    between atoms: _520  and  _522
REMARK  222  A    between atoms: _522  and  _523
REMARK  223  A    between atoms: _522  and  _525
REMARK  224  A    between atoms: _525  and  _526
REMARK  225  A    between atoms: _529  and  _531
REMARK  226  A    between atoms: _531  and  _532
REMARK  227  A    between atoms: _531  and  _534
REMARK  228  A    between atoms: _534  and  _535
REMARK  229  A    between atoms: _535  and  _536
REMARK  230  A    between atoms: _536  and  _537
REMARK  231  A    between atoms: _546  and  _548
REMARK  232  A    between atoms: _548  and  _549
REMARK  233  A    between atoms: _548  and  _551
REMARK  234  A    between atoms: _551  and  _552
REMARK  235  A    between atoms: _557  and  _559
REMARK  236  A    between atoms: _559  and  _560
REMARK  237  A    between atoms: _559  and  _562
REMARK  238  A    between atoms: _562  and  _563
REMARK  239  A    between atoms: _568  and  _569
REMARK                            x       y       z     vdW  Elec       q    Type
REMARK                         _______ _______ _______ _____ _____    ______ ____
ROOT
ATOM      1  O   HOH     1      11.613  29.419  13.573  0.00  0.00    +0.000 OA
ENDROOT
TORSDOF 0
REMARK  Name = ../refined-set-2016/1vyg/1vyg_pocket.pdb
REMARK  239 active torsions:
REMARK  status: ('A' for Active; 'I' for Inactive)
REMARK    1  A    between atoms: _1  and  _3
REMARK    2  A    between atoms: _3  and  _4
REMARK    3  A    between atoms: _3  and  _6
REMARK    4  A    between atoms: _6  and  _7
REMARK    5  A    between atoms: _10  and  _12
REMARK    6  A    between atoms: _12  and  _13
REMARK    7  A    between atoms: _12  and  _15
REMARK    8  A    between atoms: _15  and  _16
REMARK    9  A    between atoms: _16  and  _17
REMARK   10  A    between atoms: _20  and  _22
REMARK   11  A    between atoms: _22  and  _23
REMARK   12  A    between atoms: _22  and  _25
REMARK   13  A    between atoms: _25  and  _26
REMARK   14  A    between atoms: _28  and  _30
REMARK   15  A    between atoms: _30  and  _31
REMARK   16  A    between atoms: _30  and  _33
REMARK   17  A    between atoms: _33  and  _34
REMARK   18  A    between atoms: _40  and  _42
REMARK   19  A    between atoms: _42  and  _43
REMARK   20  A    between atoms: _42  and  _45
REMARK   21  A    between atoms: _48  and  _50
REMARK   22  A    between atoms: _50  and  _51
REMARK   23  A    between atoms: _50  and  _53
REMARK   24  A    between atoms: _53  and  _54
REMARK   25  A    between atoms: _54  and  _55
REMARK   26  A    between atoms: _57  and  _59
REMARK   27  A    between atoms: _59  and  _60
REMARK   28  A    between atoms: _59  and  _62
REMARK   29  A    between atoms: _62  and  _63
REMARK   30  A    between atoms: _65  and  _67
REMARK   31  A    between atoms: _67  and  _68
REMARK   32  A    between atoms: _67  and  _70
REMARK   33  A    between atoms: _70  and  _71
REMARK   34  A    between atoms: _74  and  _76
REMARK   35  A    between atoms: _76  and  _77
REMARK   36  A    between atoms: _79  and  _81
REMARK   37  A    between atoms: _81  and  _82
REMARK   38  A    between atoms: _81  and  _84
REMARK   39  A    between atoms: _87  and  _89
REMARK   40  A    between atoms: _89  and  _90
REMARK   41  A    between atoms: _89  and  _92
REMARK   42  A    between atoms: _92  and  _93
REMARK   43  A    between atoms: _95  and  _97
REMARK   44  A    between atoms: _97  and  _98
REMARK   45  A    between atoms: _101  and  _103
REMARK   46  A    between atoms: _103  and  _104
REMARK   47  A    between atoms: _103  and  _106
REMARK   48  A    between atoms: _106  and  _107
REMARK   49  A    between atoms: _110  and  _112
REMARK   50  A    between atoms: _112  and  _113
REMARK   51  A    between atoms: _112  and  _115
REMARK   52  A    between atoms: _115  and  _116
REMARK   53  A    between atoms: _116  and  _117
REMARK   54  A    between atoms: _117  and  _118
REMARK   55  A    between atoms: _127  and  _129
REMARK   56  A    between atoms: _129  and  _130
REMARK   57  A    between atoms: _129  and  _132
REMARK   58  A    between atoms: _132  and  _133
REMARK   59  A    between atoms: _133  and  _134
REMARK   60  A    between atoms: _139  and  _141
REMARK   61  A    between atoms: _141  and  _142
REMARK   62  A    between atoms: _141  and  _144
REMARK   63  A    between atoms: _144  and  _145
REMARK   64  A    between atoms: _148  and  _150
REMARK   65  A    between atoms: _150  and  _151
REMARK   66  A    between atoms: _153  and  _155
REMARK   67  A    between atoms: _155  and  _156
REMARK   68  A    between atoms: _155  and  _158
REMARK   69  A    between atoms: _158  and  _159
REMARK   70  A    between atoms: _164  and  _166
REMARK   71  A    between atoms: _166  and  _167
REMARK   72  A    between atoms: _166  and  _169
REMARK   73  A    between atoms: _169  and  _170
REMARK   74  A    between atoms: _173  and  _175
REMARK   75  A    between atoms: _175  and  _176
REMARK   76  A    between atoms: _175  and  _178
REMARK   77  A    between atoms: _181  and  _183
REMARK   78  A    between atoms: _183  and  _184
REMARK   79  A    between atoms: _183  and  _186
REMARK   80  A    between atoms: _186  and  _187
REMARK   81  A    between atoms: _191  and  _192
REMARK   82  A    between atoms: _197  and  _199
REMARK   83  A    between atoms: _199  and  _200
REMARK   84  A    between atoms: _199  and  _202
REMARK   85  A    between atoms: _202  and  _203
REMARK   86  A    between atoms: _206  and  _208
REMARK   87  A    between atoms: _208  and  _209
REMARK   88  A    between atoms: _208  and  _211
REMARK   89  A    between atoms: _214  and  _216
REMARK   90  A    between atoms: _216  and  _217
REMARK   91  A    between atoms: _216  and  _219
REMARK   92  A    between atoms: _219  and  _220
REMARK   93  A    between atoms: _226  and  _228
REMARK   94  A    between atoms: _228  and  _229
REMARK   95  A    between atoms: _228  and  _231
REMARK   96  A    between atoms: _231  and  _232
REMARK   97  A    between atoms: _232  and  _233
REMARK   98  A    between atoms: _235  and  _237
REMARK   99  A    between atoms: _237  and  _238
REMARK  100  A    between atoms: _237  and  _240
REMARK  101  A    between atoms: _240  and  _241
REMARK  102  A    between atoms: _244  and  _246
REMARK  103  A    between atoms: _246  and  _247
REMARK  104  A    between atoms: _246  and  _249
REMARK  105  A    between atoms: _249  and  _250
REMARK  106  A    between atoms: _250  and  _251
REMARK  107  A    between atoms: _254  and  _256
REMARK  108  A    between atoms: _256  and  _257
REMARK  109  A    between atoms: _256  and  _259
REMARK  110  A    between atoms: _259  and  _260
REMARK  111  A    between atoms: _262  and  _264
REMARK  112  A    between atoms: _264  and  _265
REMARK  113  A    between atoms: _264  and  _267
REMARK  114  A    between atoms: _267  and  _268
REMARK  115  A    between atoms: _271  and  _273
REMARK  116  A    between atoms: _273  and  _274
REMARK  117  A    between atoms: _273  and  _276
REMARK  118  A    between atoms: _276  and  _277
REMARK  119  A    between atoms: _283  and  _285
REMARK  120  A    between atoms: _285  and  _286
REMARK  121  A    between atoms: _285  and  _288
REMARK  122  A    between atoms: _288  and  _289
REMARK  123  A    between atoms: _289  and  _290
REMARK  124  A    between atoms: _290  and  _291
REMARK  125  A    between atoms: _291  and  _292
REMARK  126  A    between atoms: _296  and  _298
REMARK  127  A    between atoms: _298  and  _299
REMARK  128  A    between atoms: _298  and  _301
REMARK  129  A    between atoms: _301  and  _302
REMARK  130  A    between atoms: _307  and  _309
REMARK  131  A    between atoms: _309  and  _310
REMARK  132  A    between atoms: _309  and  _312
REMARK  133  A    between atoms: _312  and  _313
REMARK  134  A    between atoms: _316  and  _318
REMARK  135  A    between atoms: _318  and  _319
REMARK  136  A    between atoms: _318  and  _321
REMARK  137  A    between atoms: _321  and  _322
REMARK  138  A    between atoms: _322  and  _323
REMARK  139  A    between atoms: _326  and  _328
REMARK  140  A    between atoms: _328  and  _329
REMARK  141  A    between atoms: _328  and  _331
REMARK  142  A    between atoms: _331  and  _332
REMARK  143  A    between atoms: _335  and  _337
REMARK  144  A    between atoms: _337  and  _338
REMARK  145  A    between atoms: _337  and  _340
REMARK  146  A    between atoms: _340  and  _341
REMARK  147  A    between atoms: _343  and  _345
REMARK  148  A    between atoms: _345  and  _346
REMARK  149  A    between atoms: _345  and  _348
REMARK  150  A    between atoms: _348  and  _349
REMARK  151  A    between atoms: _352  and  _354
REMARK  152  A    between atoms: _354  and  _355
REMARK  153  A    between atoms: _357  and  _359
REMARK  154  A    between atoms: _359  and  _360
REMARK  155  A    between atoms: _359  and  _362
REMARK  156  A    between atoms: _362  and  _363
REMARK  157  A    between atoms: _363  and  _364
REMARK  158  A    between atoms: _364  and  _365
REMARK  159  A    between atoms: _374  and  _376
REMARK  160  A    between atoms: _376  and  _377
REMARK  161  A    between atoms: _376  and  _379
REMARK  162  A    between atoms: _379  and  _380
REMARK  163  A    between atoms: _380  and  _381
REMARK  164  A    between atoms: _386  and  _388
REMARK  165  A    between atoms: _388  and  _389
REMARK  166  A    between atoms: _388  and  _391
REMARK  167  A    between atoms: _391  and  _392
REMARK  168  A    between atoms: _392  and  _393
REMARK  169  A    between atoms: _398  and  _400
REMARK  170  A    between atoms: _400  and  _401
REMARK  171  A    between atoms: _400  and  _403
REMARK  172  A    between atoms: _403  and  _404
REMARK  173  A    between atoms: _407  and  _409
REMARK  174  A    between atoms: _409  and  _410
REMARK  175  A    between atoms: _409  and  _412
REMARK  176  A    between atoms: _415  and  _417
REMARK  177  A    between atoms: _417  and  _418
REMARK  178  A    between atoms: _417  and  _420
REMARK  179  A    between atoms: _420  and  _421
REMARK  180  A    between atoms: _424  and  _426
REMARK  181  A    between atoms: _426  and  _427
REMARK  182  A    between atoms: _426  and  _429
REMARK  183  A    between atoms: _432  and  _434
REMARK  184  A    between atoms: _434  and  _435
REMARK  185  A    between atoms: _434  and  _437
REMARK  186  A    between atoms: _437  and  _438
REMARK  187  A    between atoms: _438  and  _439
REMARK  188  A    between atoms: _439  and  _440
REMARK  189  A    between atoms: _449  and  _451
REMARK  190  A    between atoms: _451  and  _452
REMARK  191  A    between atoms: _451  and  _454
REMARK  192  A    between atoms: _454  and  _455
REMARK  193  A    between atoms: _455  and  _456
REMARK  194  A    between atoms: _458  and  _460
REMARK  195  A    between atoms: _460  and  _461
REMARK  196  A    between atoms: _460  and  _463
REMARK  197  A    between atoms: _463  and  _464
REMARK  198  A    between atoms: _464  and  _465
REMARK  199  A    between atoms: _465  and  _466
REMARK  200  A    between atoms: _466  and  _467
REMARK  201  A    between atoms: _471  and  _473
REMARK  202  A    between atoms: _473  and  _474
REMARK  203  A    between atoms: _473  and  _476
REMARK  204  A    between atoms: _476  and  _477
REMARK  205  A    between atoms: _480  and  _482
REMARK  206  A    between atoms: _482  and  _483
REMARK  207  A    between atoms: _482  and  _485
REMARK  208  A    between atoms: _485  and  _486
REMARK  209  A    between atoms: _489  and  _491
REMARK  210  A    between atoms: _491  and  _492
REMARK  211  A    between atoms: _491  and  _494
REMARK  212  A    between atoms: _497  and  _499
REMARK  213  A    between atoms: _499  and  _500
REMARK  214  A    between atoms: _499  and  _502
REMARK  215  A    between atoms: _502  and  _503
REMARK  216  A    between atoms: _506  and  _508
REMARK  217  A    between atoms: _508  and  _509
REMARK  218  A    between atoms: _508  and  _511
REMARK  219  A    between atoms: _514  and  _516
REMARK  220  A    between atoms: _516  and  _517
REMARK  221  A    between atoms: _520  and  _522
REMARK  222  A    between atoms: _522  and  _523
REMARK  223  A    between atoms: _522  and  _525
REMARK  224  A    between atoms: _525  and  _526
REMARK  225  A    between atoms: _529  and  _531
REMARK  226  A    between atoms: _531  and  _532
REMARK  227  A    between atoms: _531  and  _534
REMARK  228  A    between atoms: _534  and  _535
REMARK  229  A    between atoms: _535  and  _536
REMARK  230  A    between atoms: _536  and  _537
REMARK  231  A    between atoms: _546  and  _548
REMARK  232  A    between atoms: _548  and  _549
REMARK  233  A    between atoms: _548  and  _551
REMARK  234  A    between atoms: _551  and  _552
REMARK  235  A    between atoms: _557  and  _559
REMARK  236  A    between atoms: _559  and  _560
REMARK  237  A    between atoms: _559  and  _562
REMARK  238  A    between atoms: _562  and  _563
REMARK  239  A    between atoms: _568  and  _569
REMARK                            x       y       z     vdW  Elec       q    Type
REMARK                         _______ _______ _______ _____ _____    ______ ____
ROOT
ATOM      1  O   HOH     1      10.692  28.398  17.136  0.00  0.00    +0.000 OA
ENDROOT
TORSDOF 0
REMARK  Name = ../refined-set-2016/1vyg/1vyg_pocket.pdb
REMARK  239 active torsions:
REMARK  status: ('A' for Active; 'I' for Inactive)
REMARK    1  A    between atoms: _1  and  _3
REMARK    2  A    between atoms: _3  and  _4
REMARK    3  A    between atoms: _3  and  _6
REMARK    4  A    between atoms: _6  and  _7
REMARK    5  A    between atoms: _10  and  _12
REMARK    6  A    between atoms: _12  and  _13
REMARK    7  A    between atoms: _12  and  _15
REMARK    8  A    between atoms: _15  and  _16
REMARK    9  A    between atoms: _16  and  _17
REMARK   10  A    between atoms: _20  and  _22
REMARK   11  A    between atoms: _22  and  _23
REMARK   12  A    between atoms: _22  and  _25
REMARK   13  A    between atoms: _25  and  _26
REMARK   14  A    between atoms: _28  and  _30
REMARK   15  A    between atoms: _30  and  _31
REMARK   16  A    between atoms: _30  and  _33
REMARK   17  A    between atoms: _33  and  _34
REMARK   18  A    between atoms: _40  and  _42
REMARK   19  A    between atoms: _42  and  _43
REMARK   20  A    between atoms: _42  and  _45
REMARK   21  A    between atoms: _48  and  _50
REMARK   22  A    between atoms: _50  and  _51
REMARK   23  A    between atoms: _50  and  _53
REMARK   24  A    between atoms: _53  and  _54
REMARK   25  A    between atoms: _54  and  _55
REMARK   26  A    between atoms: _57  and  _59
REMARK   27  A    between atoms: _59  and  _60
REMARK   28  A    between atoms: _59  and  _62
REMARK   29  A    between atoms: _62  and  _63
REMARK   30  A    between atoms: _65  and  _67
REMARK   31  A    between atoms: _67  and  _68
REMARK   32  A    between atoms: _67  and  _70
REMARK   33  A    between atoms: _70  and  _71
REMARK   34  A    between atoms: _74  and  _76
REMARK   35  A    between atoms: _76  and  _77
REMARK   36  A    between atoms: _79  and  _81
REMARK   37  A    between atoms: _81  and  _82
REMARK   38  A    between atoms: _81  and  _84
REMARK   39  A    between atoms: _87  and  _89
REMARK   40  A    between atoms: _89  and  _90
REMARK   41  A    between atoms: _89  and  _92
REMARK   42  A    between atoms: _92  and  _93
REMARK   43  A    between atoms: _95  and  _97
REMARK   44  A    between atoms: _97  and  _98
REMARK   45  A    between atoms: _101  and  _103
REMARK   46  A    between atoms: _103  and  _104
REMARK   47  A    between atoms: _103  and  _106
REMARK   48  A    between atoms: _106  and  _107
REMARK   49  A    between atoms: _110  and  _112
REMARK   50  A    between atoms: _112  and  _113
REMARK   51  A    between atoms: _112  and  _115
REMARK   52  A    between atoms: _115  and  _116
REMARK   53  A    between atoms: _116  and  _117
REMARK   54  A    between atoms: _117  and  _118
REMARK   55  A    between atoms: _127  and  _129
REMARK   56  A    between atoms: _129  and  _130
REMARK   57  A    between atoms: _129  and  _132
REMARK   58  A    between atoms: _132  and  _133
REMARK   59  A    between atoms: _133  and  _134
REMARK   60  A    between atoms: _139  and  _141
REMARK   61  A    between atoms: _141  and  _142
REMARK   62  A    between atoms: _141  and  _144
REMARK   63  A    between atoms: _144  and  _145
REMARK   64  A    between atoms: _148  and  _150
REMARK   65  A    between atoms: _150  and  _151
REMARK   66  A    between atoms: _153  and  _155
REMARK   67  A    between atoms: _155  and  _156
REMARK   68  A    between atoms: _155  and  _158
REMARK   69  A    between atoms: _158  and  _159
REMARK   70  A    between atoms: _164  and  _166
REMARK   71  A    between atoms: _166  and  _167
REMARK   72  A    between atoms: _166  and  _169
REMARK   73  A    between atoms: _169  and  _170
REMARK   74  A    between atoms: _173  and  _175
REMARK   75  A    between atoms: _175  and  _176
REMARK   76  A    between atoms: _175  and  _178
REMARK   77  A    between atoms: _181  and  _183
REMARK   78  A    between atoms: _183  and  _184
REMARK   79  A    between atoms: _183  and  _186
REMARK   80  A    between atoms: _186  and  _187
REMARK   81  A    between atoms: _191  and  _192
REMARK   82  A    between atoms: _197  and  _199
REMARK   83  A    between atoms: _199  and  _200
REMARK   84  A    between atoms: _199  and  _202
REMARK   85  A    between atoms: _202  and  _203
REMARK   86  A    between atoms: _206  and  _208
REMARK   87  A    between atoms: _208  and  _209
REMARK   88  A    between atoms: _208  and  _211
REMARK   89  A    between atoms: _214  and  _216
REMARK   90  A    between atoms: _216  and  _217
REMARK   91  A    between atoms: _216  and  _219
REMARK   92  A    between atoms: _219  and  _220
REMARK   93  A    between atoms: _226  and  _228
REMARK   94  A    between atoms: _228  and  _229
REMARK   95  A    between atoms: _228  and  _231
REMARK   96  A    between atoms: _231  and  _232
REMARK   97  A    between atoms: _232  and  _233
REMARK   98  A    between atoms: _235  and  _237
REMARK   99  A    between atoms: _237  and  _238
REMARK  100  A    between atoms: _237  and  _240
REMARK  101  A    between atoms: _240  and  _241
REMARK  102  A    between atoms: _244  and  _246
REMARK  103  A    between atoms: _246  and  _247
REMARK  104  A    between atoms: _246  and  _249
REMARK  105  A    between atoms: _249  and  _250
REMARK  106  A    between atoms: _250  and  _251
REMARK  107  A    between atoms: _254  and  _256
REMARK  108  A    between atoms: _256  and  _257
REMARK  109  A    between atoms: _256  and  _259
REMARK  110  A    between atoms: _259  and  _260
REMARK  111  A    between atoms: _262  and  _264
REMARK  112  A    between atoms: _264  and  _265
REMARK  113  A    between atoms: _264  and  _267
REMARK  114  A    between atoms: _267  and  _268
REMARK  115  A    between atoms: _271  and  _273
REMARK  116  A    between atoms: _273  and  _274
REMARK  117  A    between atoms: _273  and  _276
REMARK  118  A    between atoms: _276  and  _277
REMARK  119  A    between atoms: _283  and  _285
REMARK  120  A    between atoms: _285  and  _286
REMARK  121  A    between atoms: _285  and  _288
REMARK  122  A    between atoms: _288  and  _289
REMARK  123  A    between atoms: _289  and  _290
REMARK  124  A    between atoms: _290  and  _291
REMARK  125  A    between atoms: _291  and  _292
REMARK  126  A    between atoms: _296  and  _298
REMARK  127  A    between atoms: _298  and  _299
REMARK  128  A    between atoms: _298  and  _301
REMARK  129  A    between atoms: _301  and  _302
REMARK  130  A    between atoms: _307  and  _309
REMARK  131  A    between atoms: _309  and  _310
REMARK  132  A    between atoms: _309  and  _312
REMARK  133  A    between atoms: _312  and  _313
REMARK  134  A    between atoms: _316  and  _318
REMARK  135  A    between atoms: _318  and  _319
REMARK  136  A    between atoms: _318  and  _321
REMARK  137  A    between atoms: _321  and  _322
REMARK  138  A    between atoms: _322  and  _323
REMARK  139  A    between atoms: _326  and  _328
REMARK  140  A    between atoms: _328  and  _329
REMARK  141  A    between atoms: _328  and  _331
REMARK  142  A    between atoms: _331  and  _332
REMARK  143  A    between atoms: _335  and  _337
REMARK  144  A    between atoms: _337  and  _338
REMARK  145  A    between atoms: _337  and  _340
REMARK  146  A    between atoms: _340  and  _341
REMARK  147  A    between atoms: _343  and  _345
REMARK  148  A    between atoms: _345  and  _346
REMARK  149  A    between atoms: _345  and  _348
REMARK  150  A    between atoms: _348  and  _349
REMARK  151  A    between atoms: _352  and  _354
REMARK  152  A    between atoms: _354  and  _355
REMARK  153  A    between atoms: _357  and  _359
REMARK  154  A    between atoms: _359  and  _360
REMARK  155  A    between atoms: _359  and  _362
REMARK  156  A    between atoms: _362  and  _363
REMARK  157  A    between atoms: _363  and  _364
REMARK  158  A    between atoms: _364  and  _365
REMARK  159  A    between atoms: _374  and  _376
REMARK  160  A    between atoms: _376  and  _377
REMARK  161  A    between atoms: _376  and  _379
REMARK  162  A    between atoms: _379  and  _380
REMARK  163  A    between atoms: _380  and  _381
REMARK  164  A    between atoms: _386  and  _388
REMARK  165  A    between atoms: _388  and  _389
REMARK  166  A    between atoms: _388  and  _391
REMARK  167  A    between atoms: _391  and  _392
REMARK  168  A    between atoms: _392  and  _393
REMARK  169  A    between atoms: _398  and  _400
REMARK  170  A    between atoms: _400  and  _401
REMARK  171  A    between atoms: _400  and  _403
REMARK  172  A    between atoms: _403  and  _404
REMARK  173  A    between atoms: _407  and  _409
REMARK  174  A    between atoms: _409  and  _410
REMARK  175  A    between atoms: _409  and  _412
REMARK  176  A    between atoms: _415  and  _417
REMARK  177  A    between atoms: _417  and  _418
REMARK  178  A    between atoms: _417  and  _420
REMARK  179  A    between atoms: _420  and  _421
REMARK  180  A    between atoms: _424  and  _426
REMARK  181  A    between atoms: _426  and  _427
REMARK  182  A    between atoms: _426  and  _429
REMARK  183  A    between atoms: _432  and  _434
REMARK  184  A    between atoms: _434  and  _435
REMARK  185  A    between atoms: _434  and  _437
REMARK  186  A    between atoms: _437  and  _438
REMARK  187  A    between atoms: _438  and  _439
REMARK  188  A    between atoms: _439  and  _440
REMARK  189  A    between atoms: _449  and  _451
REMARK  190  A    between atoms: _451  and  _452
REMARK  191  A    between atoms: _451  and  _454
REMARK  192  A    between atoms: _454  and  _455
REMARK  193  A    between atoms: _455  and  _456
REMARK  194  A    between atoms: _458  and  _460
REMARK  195  A    between atoms: _460  and  _461
REMARK  196  A    between atoms: _460  and  _463
REMARK  197  A    between atoms: _463  and  _464
REMARK  198  A    between atoms: _464  and  _465
REMARK  199  A    between atoms: _465  and  _466
REMARK  200  A    between atoms: _466  and  _467
REMARK  201  A    between atoms: _471  and  _473
REMARK  202  A    between atoms: _473  and  _474
REMARK  203  A    between atoms: _473  and  _476
REMARK  204  A    between atoms: _476  and  _477
REMARK  205  A    between atoms: _480  and  _482
REMARK  206  A    between atoms: _482  and  _483
REMARK  207  A    between atoms: _482  and  _485
REMARK  208  A    between atoms: _485  and  _486
REMARK  209  A    between atoms: _489  and  _491
REMARK  210  A    between atoms: _491  and  _492
REMARK  211  A    between atoms: _491  and  _494
REMARK  212  A    between atoms: _497  and  _499
REMARK  213  A    between atoms: _499  and  _500
REMARK  214  A    between atoms: _499  and  _502
REMARK  215  A    between atoms: _502  and  _503
REMARK  216  A    between atoms: _506  and  _508
REMARK  217  A    between atoms: _508  and  _509
REMARK  218  A    between atoms: _508  and  _511
REMARK  219  A    between atoms: _514  and  _516
REMARK  220  A    between atoms: _516  and  _517
REMARK  221  A    between atoms: _520  and  _522
REMARK  222  A    between atoms: _522  and  _523
REMARK  223  A    between atoms: _522  and  _525
REMARK  224  A    between atoms: _525  and  _526
REMARK  225  A    between atoms: _529  and  _531
REMARK  226  A    between atoms: _531  and  _532
REMARK  227  A    between atoms: _531  and  _534
REMARK  228  A    between atoms: _534  and  _535
REMARK  229  A    between atoms: _535  and  _536
REMARK  230  A    between atoms: _536  and  _537
REMARK  231  A    between atoms: _546  and  _548
REMARK  232  A    between atoms: _548  and  _549
REMARK  233  A    between atoms: _548  and  _551
REMARK  234  A    between atoms: _551  and  _552
REMARK  235  A    between atoms: _557  and  _559
REMARK  236  A    between atoms: _559  and  _560
REMARK  237  A    between atoms: _559  and  _562
REMARK  238  A    between atoms: _562  and  _563
REMARK  239  A    between atoms: _568  and  _569
REMARK                            x       y       z     vdW  Elec       q    Type
REMARK                         _______ _______ _______ _____ _____    ______ ____
ROOT
ATOM      1  O   HOH     1      12.463  32.935  11.701  0.00  0.00    +0.000 OA
ENDROOT
TORSDOF 0
REMARK  Name = ../refined-set-2016/1vyg/1vyg_pocket.pdb
REMARK  239 active torsions:
REMARK  status: ('A' for Active; 'I' for Inactive)
REMARK    1  A    between atoms: _1  and  _3
REMARK    2  A    between atoms: _3  and  _4
REMARK    3  A    between atoms: _3  and  _6
REMARK    4  A    between atoms: _6  and  _7
REMARK    5  A    between atoms: _10  and  _12
REMARK    6  A    between atoms: _12  and  _13
REMARK    7  A    between atoms: _12  and  _15
REMARK    8  A    between atoms: _15  and  _16
REMARK    9  A    between atoms: _16  and  _17
REMARK   10  A    between atoms: _20  and  _22
REMARK   11  A    between atoms: _22  and  _23
REMARK   12  A    between atoms: _22  and  _25
REMARK   13  A    between atoms: _25  and  _26
REMARK   14  A    between atoms: _28  and  _30
REMARK   15  A    between atoms: _30  and  _31
REMARK   16  A    between atoms: _30  and  _33
REMARK   17  A    between atoms: _33  and  _34
REMARK   18  A    between atoms: _40  and  _42
REMARK   19  A    between atoms: _42  and  _43
REMARK   20  A    between atoms: _42  and  _45
REMARK   21  A    between atoms: _48  and  _50
REMARK   22  A    between atoms: _50  and  _51
REMARK   23  A    between atoms: _50  and  _53
REMARK   24  A    between atoms: _53  and  _54
REMARK   25  A    between atoms: _54  and  _55
REMARK   26  A    between atoms: _57  and  _59
REMARK   27  A    between atoms: _59  and  _60
REMARK   28  A    between atoms: _59  and  _62
REMARK   29  A    between atoms: _62  and  _63
REMARK   30  A    between atoms: _65  and  _67
REMARK   31  A    between atoms: _67  and  _68
REMARK   32  A    between atoms: _67  and  _70
REMARK   33  A    between atoms: _70  and  _71
REMARK   34  A    between atoms: _74  and  _76
REMARK   35  A    between atoms: _76  and  _77
REMARK   36  A    between atoms: _79  and  _81
REMARK   37  A    between atoms: _81  and  _82
REMARK   38  A    between atoms: _81  and  _84
REMARK   39  A    between atoms: _87  and  _89
REMARK   40  A    between atoms: _89  and  _90
REMARK   41  A    between atoms: _89  and  _92
REMARK   42  A    between atoms: _92  and  _93
REMARK   43  A    between atoms: _95  and  _97
REMARK   44  A    between atoms: _97  and  _98
REMARK   45  A    between atoms: _101  and  _103
REMARK   46  A    between atoms: _103  and  _104
REMARK   47  A    between atoms: _103  and  _106
REMARK   48  A    between atoms: _106  and  _107
REMARK   49  A    between atoms: _110  and  _112
REMARK   50  A    between atoms: _112  and  _113
REMARK   51  A    between atoms: _112  and  _115
REMARK   52  A    between atoms: _115  and  _116
REMARK   53  A    between atoms: _116  and  _117
REMARK   54  A    between atoms: _117  and  _118
REMARK   55  A    between atoms: _127  and  _129
REMARK   56  A    between atoms: _129  and  _130
REMARK   57  A    between atoms: _129  and  _132
REMARK   58  A    between atoms: _132  and  _133
REMARK   59  A    between atoms: _133  and  _134
REMARK   60  A    between atoms: _139  and  _141
REMARK   61  A    between atoms: _141  and  _142
REMARK   62  A    between atoms: _141  and  _144
REMARK   63  A    between atoms: _144  and  _145
REMARK   64  A    between atoms: _148  and  _150
REMARK   65  A    between atoms: _150  and  _151
REMARK   66  A    between atoms: _153  and  _155
REMARK   67  A    between atoms: _155  and  _156
REMARK   68  A    between atoms: _155  and  _158
REMARK   69  A    between atoms: _158  and  _159
REMARK   70  A    between atoms: _164  and  _166
REMARK   71  A    between atoms: _166  and  _167
REMARK   72  A    between atoms: _166  and  _169
REMARK   73  A    between atoms: _169  and  _170
REMARK   74  A    between atoms: _173  and  _175
REMARK   75  A    between atoms: _175  and  _176
REMARK   76  A    between atoms: _175  and  _178
REMARK   77  A    between atoms: _181  and  _183
REMARK   78  A    between atoms: _183  and  _184
REMARK   79  A    between atoms: _183  and  _186
REMARK   80  A    between atoms: _186  and  _187
REMARK   81  A    between atoms: _191  and  _192
REMARK   82  A    between atoms: _197  and  _199
REMARK   83  A    between atoms: _199  and  _200
REMARK   84  A    between atoms: _199  and  _202
REMARK   85  A    between atoms: _202  and  _203
REMARK   86  A    between atoms: _206  and  _208
REMARK   87  A    between atoms: _208  and  _209
REMARK   88  A    between atoms: _208  and  _211
REMARK   89  A    between atoms: _214  and  _216
REMARK   90  A    between atoms: _216  and  _217
REMARK   91  A    between atoms: _216  and  _219
REMARK   92  A    between atoms: _219  and  _220
REMARK   93  A    between atoms: _226  and  _228
REMARK   94  A    between atoms: _228  and  _229
REMARK   95  A    between atoms: _228  and  _231
REMARK   96  A    between atoms: _231  and  _232
REMARK   97  A    between atoms: _232  and  _233
REMARK   98  A    between atoms: _235  and  _237
REMARK   99  A    between atoms: _237  and  _238
REMARK  100  A    between atoms: _237  and  _240
REMARK  101  A    between atoms: _240  and  _241
REMARK  102  A    between atoms: _244  and  _246
REMARK  103  A    between atoms: _246  and  _247
REMARK  104  A    between atoms: _246  and  _249
REMARK  105  A    between atoms: _249  and  _250
REMARK  106  A    between atoms: _250  and  _251
REMARK  107  A    between atoms: _254  and  _256
REMARK  108  A    between atoms: _256  and  _257
REMARK  109  A    between atoms: _256  and  _259
REMARK  110  A    between atoms: _259  and  _260
REMARK  111  A    between atoms: _262  and  _264
REMARK  112  A    between atoms: _264  and  _265
REMARK  113  A    between atoms: _264  and  _267
REMARK  114  A    between atoms: _267  and  _268
REMARK  115  A    between atoms: _271  and  _273
REMARK  116  A    between atoms: _273  and  _274
REMARK  117  A    between atoms: _273  and  _276
REMARK  118  A    between atoms: _276  and  _277
REMARK  119  A    between atoms: _283  and  _285
REMARK  120  A    between atoms: _285  and  _286
REMARK  121  A    between atoms: _285  and  _288
REMARK  122  A    between atoms: _288  and  _289
REMARK  123  A    between atoms: _289  and  _290
REMARK  124  A    between atoms: _290  and  _291
REMARK  125  A    between atoms: _291  and  _292
REMARK  126  A    between atoms: _296  and  _298
REMARK  127  A    between atoms: _298  and  _299
REMARK  128  A    between atoms: _298  and  _301
REMARK  129  A    between atoms: _301  and  _302
REMARK  130  A    between atoms: _307  and  _309
REMARK  131  A    between atoms: _309  and  _310
REMARK  132  A    between atoms: _309  and  _312
REMARK  133  A    between atoms: _312  and  _313
REMARK  134  A    between atoms: _316  and  _318
REMARK  135  A    between atoms: _318  and  _319
REMARK  136  A    between atoms: _318  and  _321
REMARK  137  A    between atoms: _321  and  _322
REMARK  138  A    between atoms: _322  and  _323
REMARK  139  A    between atoms: _326  and  _328
REMARK  140  A    between atoms: _328  and  _329
REMARK  141  A    between atoms: _328  and  _331
REMARK  142  A    between atoms: _331  and  _332
REMARK  143  A    between atoms: _335  and  _337
REMARK  144  A    between atoms: _337  and  _338
REMARK  145  A    between atoms: _337  and  _340
REMARK  146  A    between atoms: _340  and  _341
REMARK  147  A    between atoms: _343  and  _345
REMARK  148  A    between atoms: _345  and  _346
REMARK  149  A    between atoms: _345  and  _348
REMARK  150  A    between atoms: _348  and  _349
REMARK  151  A    between atoms: _352  and  _354
REMARK  152  A    between atoms: _354  and  _355
REMARK  153  A    between atoms: _357  and  _359
REMARK  154  A    between atoms: _359  and  _360
REMARK  155  A    between atoms: _359  and  _362
REMARK  156  A    between atoms: _362  and  _363
REMARK  157  A    between atoms: _363  and  _364
REMARK  158  A    between atoms: _364  and  _365
REMARK  159  A    between atoms: _374  and  _376
REMARK  160  A    between atoms: _376  and  _377
REMARK  161  A    between atoms: _376  and  _379
REMARK  162  A    between atoms: _379  and  _380
REMARK  163  A    between atoms: _380  and  _381
REMARK  164  A    between atoms: _386  and  _388
REMARK  165  A    between atoms: _388  and  _389
REMARK  166  A    between atoms: _388  and  _391
REMARK  167  A    between atoms: _391  and  _392
REMARK  168  A    between atoms: _392  and  _393
REMARK  169  A    between atoms: _398  and  _400
REMARK  170  A    between atoms: _400  and  _401
REMARK  171  A    between atoms: _400  and  _403
REMARK  172  A    between atoms: _403  and  _404
REMARK  173  A    between atoms: _407  and  _409
REMARK  174  A    between atoms: _409  and  _410
REMARK  175  A    between atoms: _409  and  _412
REMARK  176  A    between atoms: _415  and  _417
REMARK  177  A    between atoms: _417  and  _418
REMARK  178  A    between atoms: _417  and  _420
REMARK  179  A    between atoms: _420  and  _421
REMARK  180  A    between atoms: _424  and  _426
REMARK  181  A    between atoms: _426  and  _427
REMARK  182  A    between atoms: _426  and  _429
REMARK  183  A    between atoms: _432  and  _434
REMARK  184  A    between atoms: _434  and  _435
REMARK  185  A    between atoms: _434  and  _437
REMARK  186  A    between atoms: _437  and  _438
REMARK  187  A    between atoms: _438  and  _439
REMARK  188  A    between atoms: _439  and  _440
REMARK  189  A    between atoms: _449  and  _451
REMARK  190  A    between atoms: _451  and  _452
REMARK  191  A    between atoms: _451  and  _454
REMARK  192  A    between atoms: _454  and  _455
REMARK  193  A    between atoms: _455  and  _456
REMARK  194  A    between atoms: _458  and  _460
REMARK  195  A    between atoms: _460  and  _461
REMARK  196  A    between atoms: _460  and  _463
REMARK  197  A    between atoms: _463  and  _464
REMARK  198  A    between atoms: _464  and  _465
REMARK  199  A    between atoms: _465  and  _466
REMARK  200  A    between atoms: _466  and  _467
REMARK  201  A    between atoms: _471  and  _473
REMARK  202  A    between atoms: _473  and  _474
REMARK  203  A    between atoms: _473  and  _476
REMARK  204  A    between atoms: _476  and  _477
REMARK  205  A    between atoms: _480  and  _482
REMARK  206  A    between atoms: _482  and  _483
REMARK  207  A    between atoms: _482  and  _485
REMARK  208  A    between atoms: _485  and  _486
REMARK  209  A    between atoms: _489  and  _491
REMARK  210  A    between atoms: _491  and  _492
REMARK  211  A    between atoms: _491  and  _494
REMARK  212  A    between atoms: _497  and  _499
REMARK  213  A    between atoms: _499  and  _500
REMARK  214  A    between atoms: _499  and  _502
REMARK  215  A    between atoms: _502  and  _503
REMARK  216  A    between atoms: _506  and  _508
REMARK  217  A    between atoms: _508  and  _509
REMARK  218  A    between atoms: _508  and  _511
REMARK  219  A    between atoms: _514  and  _516
REMARK  220  A    between atoms: _516  and  _517
REMARK  221  A    between atoms: _520  and  _522
REMARK  222  A    between atoms: _522  and  _523
REMARK  223  A    between atoms: _522  and  _525
REMARK  224  A    between atoms: _525  and  _526
REMARK  225  A    between atoms: _529  and  _531
REMARK  226  A    between atoms: _531  and  _532
REMARK  227  A    between atoms: _531  and  _534
REMARK  228  A    between atoms: _534  and  _535
REMARK  229  A    between atoms: _535  and  _536
REMARK  230  A    between atoms: _536  and  _537
REMARK  231  A    between atoms: _546  and  _548
REMARK  232  A    between atoms: _548  and  _549
REMARK  233  A    between atoms: _548  and  _551
REMARK  234  A    between atoms: _551  and  _552
REMARK  235  A    between atoms: _557  and  _559
REMARK  236  A    between atoms: _559  and  _560
REMARK  237  A    between atoms: _559  and  _562
REMARK  238  A    between atoms: _562  and  _563
REMARK  239  A    between atoms: _568  and  _569
REMARK                            x       y       z     vdW  Elec       q    Type
REMARK                         _______ _______ _______ _____ _____    ______ ____
ROOT
ATOM      1  O   HOH     1      22.337  30.545  12.428  0.00  0.00    +0.000 OA
ENDROOT
TORSDOF 0
REMARK  Name = ../refined-set-2016/1vyg/1vyg_pocket.pdb
REMARK  239 active torsions:
REMARK  status: ('A' for Active; 'I' for Inactive)
REMARK    1  A    between atoms: _1  and  _3
REMARK    2  A    between atoms: _3  and  _4
REMARK    3  A    between atoms: _3  and  _6
REMARK    4  A    between atoms: _6  and  _7
REMARK    5  A    between atoms: _10  and  _12
REMARK    6  A    between atoms: _12  and  _13
REMARK    7  A    between atoms: _12  and  _15
REMARK    8  A    between atoms: _15  and  _16
REMARK    9  A    between atoms: _16  and  _17
REMARK   10  A    between atoms: _20  and  _22
REMARK   11  A    between atoms: _22  and  _23
REMARK   12  A    between atoms: _22  and  _25
REMARK   13  A    between atoms: _25  and  _26
REMARK   14  A    between atoms: _28  and  _30
REMARK   15  A    between atoms: _30  and  _31
REMARK   16  A    between atoms: _30  and  _33
REMARK   17  A    between atoms: _33  and  _34
REMARK   18  A    between atoms: _40  and  _42
REMARK   19  A    between atoms: _42  and  _43
REMARK   20  A    between atoms: _42  and  _45
REMARK   21  A    between atoms: _48  and  _50
REMARK   22  A    between atoms: _50  and  _51
REMARK   23  A    between atoms: _50  and  _53
REMARK   24  A    between atoms: _53  and  _54
REMARK   25  A    between atoms: _54  and  _55
REMARK   26  A    between atoms: _57  and  _59
REMARK   27  A    between atoms: _59  and  _60
REMARK   28  A    between atoms: _59  and  _62
REMARK   29  A    between atoms: _62  and  _63
REMARK   30  A    between atoms: _65  and  _67
REMARK   31  A    between atoms: _67  and  _68
REMARK   32  A    between atoms: _67  and  _70
REMARK   33  A    between atoms: _70  and  _71
REMARK   34  A    between atoms: _74  and  _76
REMARK   35  A    between atoms: _76  and  _77
REMARK   36  A    between atoms: _79  and  _81
REMARK   37  A    between atoms: _81  and  _82
REMARK   38  A    between atoms: _81  and  _84
REMARK   39  A    between atoms: _87  and  _89
REMARK   40  A    between atoms: _89  and  _90
REMARK   41  A    between atoms: _89  and  _92
REMARK   42  A    between atoms: _92  and  _93
REMARK   43  A    between atoms: _95  and  _97
REMARK   44  A    between atoms: _97  and  _98
REMARK   45  A    between atoms: _101  and  _103
REMARK   46  A    between atoms: _103  and  _104
REMARK   47  A    between atoms: _103  and  _106
REMARK   48  A    between atoms: _106  and  _107
REMARK   49  A    between atoms: _110  and  _112
REMARK   50  A    between atoms: _112  and  _113
REMARK   51  A    between atoms: _112  and  _115
REMARK   52  A    between atoms: _115  and  _116
REMARK   53  A    between atoms: _116  and  _117
REMARK   54  A    between atoms: _117  and  _118
REMARK   55  A    between atoms: _127  and  _129
REMARK   56  A    between atoms: _129  and  _130
REMARK   57  A    between atoms: _129  and  _132
REMARK   58  A    between atoms: _132  and  _133
REMARK   59  A    between atoms: _133  and  _134
REMARK   60  A    between atoms: _139  and  _141
REMARK   61  A    between atoms: _141  and  _142
REMARK   62  A    between atoms: _141  and  _144
REMARK   63  A    between atoms: _144  and  _145
REMARK   64  A    between atoms: _148  and  _150
REMARK   65  A    between atoms: _150  and  _151
REMARK   66  A    between atoms: _153  and  _155
REMARK   67  A    between atoms: _155  and  _156
REMARK   68  A    between atoms: _155  and  _158
REMARK   69  A    between atoms: _158  and  _159
REMARK   70  A    between atoms: _164  and  _166
REMARK   71  A    between atoms: _166  and  _167
REMARK   72  A    between atoms: _166  and  _169
REMARK   73  A    between atoms: _169  and  _170
REMARK   74  A    between atoms: _173  and  _175
REMARK   75  A    between atoms: _175  and  _176
REMARK   76  A    between atoms: _175  and  _178
REMARK   77  A    between atoms: _181  and  _183
REMARK   78  A    between atoms: _183  and  _184
REMARK   79  A    between atoms: _183  and  _186
REMARK   80  A    between atoms: _186  and  _187
REMARK   81  A    between atoms: _191  and  _192
REMARK   82  A    between atoms: _197  and  _199
REMARK   83  A    between atoms: _199  and  _200
REMARK   84  A    between atoms: _199  and  _202
REMARK   85  A    between atoms: _202  and  _203
REMARK   86  A    between atoms: _206  and  _208
REMARK   87  A    between atoms: _208  and  _209
REMARK   88  A    between atoms: _208  and  _211
REMARK   89  A    between atoms: _214  and  _216
REMARK   90  A    between atoms: _216  and  _217
REMARK   91  A    between atoms: _216  and  _219
REMARK   92  A    between atoms: _219  and  _220
REMARK   93  A    between atoms: _226  and  _228
REMARK   94  A    between atoms: _228  and  _229
REMARK   95  A    between atoms: _228  and  _231
REMARK   96  A    between atoms: _231  and  _232
REMARK   97  A    between atoms: _232  and  _233
REMARK   98  A    between atoms: _235  and  _237
REMARK   99  A    between atoms: _237  and  _238
REMARK  100  A    between atoms: _237  and  _240
REMARK  101  A    between atoms: _240  and  _241
REMARK  102  A    between atoms: _244  and  _246
REMARK  103  A    between atoms: _246  and  _247
REMARK  104  A    between atoms: _246  and  _249
REMARK  105  A    between atoms: _249  and  _250
REMARK  106  A    between atoms: _250  and  _251
REMARK  107  A    between atoms: _254  and  _256
REMARK  108  A    between atoms: _256  and  _257
REMARK  109  A    between atoms: _256  and  _259
REMARK  110  A    between atoms: _259  and  _260
REMARK  111  A    between atoms: _262  and  _264
REMARK  112  A    between atoms: _264  and  _265
REMARK  113  A    between atoms: _264  and  _267
REMARK  114  A    between atoms: _267  and  _268
REMARK  115  A    between atoms: _271  and  _273
REMARK  116  A    between atoms: _273  and  _274
REMARK  117  A    between atoms: _273  and  _276
REMARK  118  A    between atoms: _276  and  _277
REMARK  119  A    between atoms: _283  and  _285
REMARK  120  A    between atoms: _285  and  _286
REMARK  121  A    between atoms: _285  and  _288
REMARK  122  A    between atoms: _288  and  _289
REMARK  123  A    between atoms: _289  and  _290
REMARK  124  A    between atoms: _290  and  _291
REMARK  125  A    between atoms: _291  and  _292
REMARK  126  A    between atoms: _296  and  _298
REMARK  127  A    between atoms: _298  and  _299
REMARK  128  A    between atoms: _298  and  _301
REMARK  129  A    between atoms: _301  and  _302
REMARK  130  A    between atoms: _307  and  _309
REMARK  131  A    between atoms: _309  and  _310
REMARK  132  A    between atoms: _309  and  _312
REMARK  133  A    between atoms: _312  and  _313
REMARK  134  A    between atoms: _316  and  _318
REMARK  135  A    between atoms: _318  and  _319
REMARK  136  A    between atoms: _318  and  _321
REMARK  137  A    between atoms: _321  and  _322
REMARK  138  A    between atoms: _322  and  _323
REMARK  139  A    between atoms: _326  and  _328
REMARK  140  A    between atoms: _328  and  _329
REMARK  141  A    between atoms: _328  and  _331
REMARK  142  A    between atoms: _331  and  _332
REMARK  143  A    between atoms: _335  and  _337
REMARK  144  A    between atoms: _337  and  _338
REMARK  145  A    between atoms: _337  and  _340
REMARK  146  A    between atoms: _340  and  _341
REMARK  147  A    between atoms: _343  and  _345
REMARK  148  A    between atoms: _345  and  _346
REMARK  149  A    between atoms: _345  and  _348
REMARK  150  A    between atoms: _348  and  _349
REMARK  151  A    between atoms: _352  and  _354
REMARK  152  A    between atoms: _354  and  _355
REMARK  153  A    between atoms: _357  and  _359
REMARK  154  A    between atoms: _359  and  _360
REMARK  155  A    between atoms: _359  and  _362
REMARK  156  A    between atoms: _362  and  _363
REMARK  157  A    between atoms: _363  and  _364
REMARK  158  A    between atoms: _364  and  _365
REMARK  159  A    between atoms: _374  and  _376
REMARK  160  A    between atoms: _376  and  _377
REMARK  161  A    between atoms: _376  and  _379
REMARK  162  A    between atoms: _379  and  _380
REMARK  163  A    between atoms: _380  and  _381
REMARK  164  A    between atoms: _386  and  _388
REMARK  165  A    between atoms: _388  and  _389
REMARK  166  A    between atoms: _388  and  _391
REMARK  167  A    between atoms: _391  and  _392
REMARK  168  A    between atoms: _392  and  _393
REMARK  169  A    between atoms: _398  and  _400
REMARK  170  A    between atoms: _400  and  _401
REMARK  171  A    between atoms: _400  and  _403
REMARK  172  A    between atoms: _403  and  _404
REMARK  173  A    between atoms: _407  and  _409
REMARK  174  A    between atoms: _409  and  _410
REMARK  175  A    between atoms: _409  and  _412
REMARK  176  A    between atoms: _415  and  _417
REMARK  177  A    between atoms: _417  and  _418
REMARK  178  A    between atoms: _417  and  _420
REMARK  179  A    between atoms: _420  and  _421
REMARK  180  A    between atoms: _424  and  _426
REMARK  181  A    between atoms: _426  and  _427
REMARK  182  A    between atoms: _426  and  _429
REMARK  183  A    between atoms: _432  and  _434
REMARK  184  A    between atoms: _434  and  _435
REMARK  185  A    between atoms: _434  and  _437
REMARK  186  A    between atoms: _437  and  _438
REMARK  187  A    between atoms: _438  and  _439
REMARK  188  A    between atoms: _439  and  _440
REMARK  189  A    between atoms: _449  and  _451
REMARK  190  A    between atoms: _451  and  _452
REMARK  191  A    between atoms: _451  and  _454
REMARK  192  A    between atoms: _454  and  _455
REMARK  193  A    between atoms: _455  and  _456
REMARK  194  A    between atoms: _458  and  _460
REMARK  195  A    between atoms: _460  and  _461
REMARK  196  A    between atoms: _460  and  _463
REMARK  197  A    between atoms: _463  and  _464
REMARK  198  A    between atoms: _464  and  _465
REMARK  199  A    between atoms: _465  and  _466
REMARK  200  A    between atoms: _466  and  _467
REMARK  201  A    between atoms: _471  and  _473
REMARK  202  A    between atoms: _473  and  _474
REMARK  203  A    between atoms: _473  and  _476
REMARK  204  A    between atoms: _476  and  _477
REMARK  205  A    between atoms: _480  and  _482
REMARK  206  A    between atoms: _482  and  _483
REMARK  207  A    between atoms: _482  and  _485
REMARK  208  A    between atoms: _485  and  _486
REMARK  209  A    between atoms: _489  and  _491
REMARK  210  A    between atoms: _491  and  _492
REMARK  211  A    between atoms: _491  and  _494
REMARK  212  A    between atoms: _497  and  _499
REMARK  213  A    between atoms: _499  and  _500
REMARK  214  A    between atoms: _499  and  _502
REMARK  215  A    between atoms: _502  and  _503
REMARK  216  A    between atoms: _506  and  _508
REMARK  217  A    between atoms: _508  and  _509
REMARK  218  A    between atoms: _508  and  _511
REMARK  219  A    between atoms: _514  and  _516
REMARK  220  A    between atoms: _516  and  _517
REMARK  221  A    between atoms: _520  and  _522
REMARK  222  A    between atoms: _522  and  _523
REMARK  223  A    between atoms: _522  and  _525
REMARK  224  A    between atoms: _525  and  _526
REMARK  225  A    between atoms: _529  and  _531
REMARK  226  A    between atoms: _531  and  _532
REMARK  227  A    between atoms: _531  and  _534
REMARK  228  A    between atoms: _534  and  _535
REMARK  229  A    between atoms: _535  and  _536
REMARK  230  A    between atoms: _536  and  _537
REMARK  231  A    between atoms: _546  and  _548
REMARK  232  A    between atoms: _548  and  _549
REMARK  233  A    between atoms: _548  and  _551
REMARK  234  A    between atoms: _551  and  _552
REMARK  235  A    between atoms: _557  and  _559
REMARK  236  A    between atoms: _559  and  _560
REMARK  237  A    between atoms: _559  and  _562
REMARK  238  A    between atoms: _562  and  _563
REMARK  239  A    between atoms: _568  and  _569
REMARK                            x       y       z     vdW  Elec       q    Type
REMARK                         _______ _______ _______ _____ _____    ______ ____
ROOT
ATOM      1  O   HOH     1      11.684  28.517  -0.286  0.00  0.00    +0.000 OA
ENDROOT
TORSDOF 0
REMARK  Name = ../refined-set-2016/1vyg/1vyg_pocket.pdb
REMARK  239 active torsions:
REMARK  status: ('A' for Active; 'I' for Inactive)
REMARK    1  A    between atoms: _1  and  _3
REMARK    2  A    between atoms: _3  and  _4
REMARK    3  A    between atoms: _3  and  _6
REMARK    4  A    between atoms: _6  and  _7
REMARK    5  A    between atoms: _10  and  _12
REMARK    6  A    between atoms: _12  and  _13
REMARK    7  A    between atoms: _12  and  _15
REMARK    8  A    between atoms: _15  and  _16
REMARK    9  A    between atoms: _16  and  _17
REMARK   10  A    between atoms: _20  and  _22
REMARK   11  A    between atoms: _22  and  _23
REMARK   12  A    between atoms: _22  and  _25
REMARK   13  A    between atoms: _25  and  _26
REMARK   14  A    between atoms: _28  and  _30
REMARK   15  A    between atoms: _30  and  _31
REMARK   16  A    between atoms: _30  and  _33
REMARK   17  A    between atoms: _33  and  _34
REMARK   18  A    between atoms: _40  and  _42
REMARK   19  A    between atoms: _42  and  _43
REMARK   20  A    between atoms: _42  and  _45
REMARK   21  A    between atoms: _48  and  _50
REMARK   22  A    between atoms: _50  and  _51
REMARK   23  A    between atoms: _50  and  _53
REMARK   24  A    between atoms: _53  and  _54
REMARK   25  A    between atoms: _54  and  _55
REMARK   26  A    between atoms: _57  and  _59
REMARK   27  A    between atoms: _59  and  _60
REMARK   28  A    between atoms: _59  and  _62
REMARK   29  A    between atoms: _62  and  _63
REMARK   30  A    between atoms: _65  and  _67
REMARK   31  A    between atoms: _67  and  _68
REMARK   32  A    between atoms: _67  and  _70
REMARK   33  A    between atoms: _70  and  _71
REMARK   34  A    between atoms: _74  and  _76
REMARK   35  A    between atoms: _76  and  _77
REMARK   36  A    between atoms: _79  and  _81
REMARK   37  A    between atoms: _81  and  _82
REMARK   38  A    between atoms: _81  and  _84
REMARK   39  A    between atoms: _87  and  _89
REMARK   40  A    between atoms: _89  and  _90
REMARK   41  A    between atoms: _89  and  _92
REMARK   42  A    between atoms: _92  and  _93
REMARK   43  A    between atoms: _95  and  _97
REMARK   44  A    between atoms: _97  and  _98
REMARK   45  A    between atoms: _101  and  _103
REMARK   46  A    between atoms: _103  and  _104
REMARK   47  A    between atoms: _103  and  _106
REMARK   48  A    between atoms: _106  and  _107
REMARK   49  A    between atoms: _110  and  _112
REMARK   50  A    between atoms: _112  and  _113
REMARK   51  A    between atoms: _112  and  _115
REMARK   52  A    between atoms: _115  and  _116
REMARK   53  A    between atoms: _116  and  _117
REMARK   54  A    between atoms: _117  and  _118
REMARK   55  A    between atoms: _127  and  _129
REMARK   56  A    between atoms: _129  and  _130
REMARK   57  A    between atoms: _129  and  _132
REMARK   58  A    between atoms: _132  and  _133
REMARK   59  A    between atoms: _133  and  _134
REMARK   60  A    between atoms: _139  and  _141
REMARK   61  A    between atoms: _141  and  _142
REMARK   62  A    between atoms: _141  and  _144
REMARK   63  A    between atoms: _144  and  _145
REMARK   64  A    between atoms: _148  and  _150
REMARK   65  A    between atoms: _150  and  _151
REMARK   66  A    between atoms: _153  and  _155
REMARK   67  A    between atoms: _155  and  _156
REMARK   68  A    between atoms: _155  and  _158
REMARK   69  A    between atoms: _158  and  _159
REMARK   70  A    between atoms: _164  and  _166
REMARK   71  A    between atoms: _166  and  _167
REMARK   72  A    between atoms: _166  and  _169
REMARK   73  A    between atoms: _169  and  _170
REMARK   74  A    between atoms: _173  and  _175
REMARK   75  A    between atoms: _175  and  _176
REMARK   76  A    between atoms: _175  and  _178
REMARK   77  A    between atoms: _181  and  _183
REMARK   78  A    between atoms: _183  and  _184
REMARK   79  A    between atoms: _183  and  _186
REMARK   80  A    between atoms: _186  and  _187
REMARK   81  A    between atoms: _191  and  _192
REMARK   82  A    between atoms: _197  and  _199
REMARK   83  A    between atoms: _199  and  _200
REMARK   84  A    between atoms: _199  and  _202
REMARK   85  A    between atoms: _202  and  _203
REMARK   86  A    between atoms: _206  and  _208
REMARK   87  A    between atoms: _208  and  _209
REMARK   88  A    between atoms: _208  and  _211
REMARK   89  A    between atoms: _214  and  _216
REMARK   90  A    between atoms: _216  and  _217
REMARK   91  A    between atoms: _216  and  _219
REMARK   92  A    between atoms: _219  and  _220
REMARK   93  A    between atoms: _226  and  _228
REMARK   94  A    between atoms: _228  and  _229
REMARK   95  A    between atoms: _228  and  _231
REMARK   96  A    between atoms: _231  and  _232
REMARK   97  A    between atoms: _232  and  _233
REMARK   98  A    between atoms: _235  and  _237
REMARK   99  A    between atoms: _237  and  _238
REMARK  100  A    between atoms: _237  and  _240
REMARK  101  A    between atoms: _240  and  _241
REMARK  102  A    between atoms: _244  and  _246
REMARK  103  A    between atoms: _246  and  _247
REMARK  104  A    between atoms: _246  and  _249
REMARK  105  A    between atoms: _249  and  _250
REMARK  106  A    between atoms: _250  and  _251
REMARK  107  A    between atoms: _254  and  _256
REMARK  108  A    between atoms: _256  and  _257
REMARK  109  A    between atoms: _256  and  _259
REMARK  110  A    between atoms: _259  and  _260
REMARK  111  A    between atoms: _262  and  _264
REMARK  112  A    between atoms: _264  and  _265
REMARK  113  A    between atoms: _264  and  _267
REMARK  114  A    between atoms: _267  and  _268
REMARK  115  A    between atoms: _271  and  _273
REMARK  116  A    between atoms: _273  and  _274
REMARK  117  A    between atoms: _273  and  _276
REMARK  118  A    between atoms: _276  and  _277
REMARK  119  A    between atoms: _283  and  _285
REMARK  120  A    between atoms: _285  and  _286
REMARK  121  A    between atoms: _285  and  _288
REMARK  122  A    between atoms: _288  and  _289
REMARK  123  A    between atoms: _289  and  _290
REMARK  124  A    between atoms: _290  and  _291
REMARK  125  A    between atoms: _291  and  _292
REMARK  126  A    between atoms: _296  and  _298
REMARK  127  A    between atoms: _298  and  _299
REMARK  128  A    between atoms: _298  and  _301
REMARK  129  A    between atoms: _301  and  _302
REMARK  130  A    between atoms: _307  and  _309
REMARK  131  A    between atoms: _309  and  _310
REMARK  132  A    between atoms: _309  and  _312
REMARK  133  A    between atoms: _312  and  _313
REMARK  134  A    between atoms: _316  and  _318
REMARK  135  A    between atoms: _318  and  _319
REMARK  136  A    between atoms: _318  and  _321
REMARK  137  A    between atoms: _321  and  _322
REMARK  138  A    between atoms: _322  and  _323
REMARK  139  A    between atoms: _326  and  _328
REMARK  140  A    between atoms: _328  and  _329
REMARK  141  A    between atoms: _328  and  _331
REMARK  142  A    between atoms: _331  and  _332
REMARK  143  A    between atoms: _335  and  _337
REMARK  144  A    between atoms: _337  and  _338
REMARK  145  A    between atoms: _337  and  _340
REMARK  146  A    between atoms: _340  and  _341
REMARK  147  A    between atoms: _343  and  _345
REMARK  148  A    between atoms: _345  and  _346
REMARK  149  A    between atoms: _345  and  _348
REMARK  150  A    between atoms: _348  and  _349
REMARK  151  A    between atoms: _352  and  _354
REMARK  152  A    between atoms: _354  and  _355
REMARK  153  A    between atoms: _357  and  _359
REMARK  154  A    between atoms: _359  and  _360
REMARK  155  A    between atoms: _359  and  _362
REMARK  156  A    between atoms: _362  and  _363
REMARK  157  A    between atoms: _363  and  _364
REMARK  158  A    between atoms: _364  and  _365
REMARK  159  A    between atoms: _374  and  _376
REMARK  160  A    between atoms: _376  and  _377
REMARK  161  A    between atoms: _376  and  _379
REMARK  162  A    between atoms: _379  and  _380
REMARK  163  A    between atoms: _380  and  _381
REMARK  164  A    between atoms: _386  and  _388
REMARK  165  A    between atoms: _388  and  _389
REMARK  166  A    between atoms: _388  and  _391
REMARK  167  A    between atoms: _391  and  _392
REMARK  168  A    between atoms: _392  and  _393
REMARK  169  A    between atoms: _398  and  _400
REMARK  170  A    between atoms: _400  and  _401
REMARK  171  A    between atoms: _400  and  _403
REMARK  172  A    between atoms: _403  and  _404
REMARK  173  A    between atoms: _407  and  _409
REMARK  174  A    between atoms: _409  and  _410
REMARK  175  A    between atoms: _409  and  _412
REMARK  176  A    between atoms: _415  and  _417
REMARK  177  A    between atoms: _417  and  _418
REMARK  178  A    between atoms: _417  and  _420
REMARK  179  A    between atoms: _420  and  _421
REMARK  180  A    between atoms: _424  and  _426
REMARK  181  A    between atoms: _426  and  _427
REMARK  182  A    between atoms: _426  and  _429
REMARK  183  A    between atoms: _432  and  _434
REMARK  184  A    between atoms: _434  and  _435
REMARK  185  A    between atoms: _434  and  _437
REMARK  186  A    between atoms: _437  and  _438
REMARK  187  A    between atoms: _438  and  _439
REMARK  188  A    between atoms: _439  and  _440
REMARK  189  A    between atoms: _449  and  _451
REMARK  190  A    between atoms: _451  and  _452
REMARK  191  A    between atoms: _451  and  _454
REMARK  192  A    between atoms: _454  and  _455
REMARK  193  A    between atoms: _455  and  _456
REMARK  194  A    between atoms: _458  and  _460
REMARK  195  A    between atoms: _460  and  _461
REMARK  196  A    between atoms: _460  and  _463
REMARK  197  A    between atoms: _463  and  _464
REMARK  198  A    between atoms: _464  and  _465
REMARK  199  A    between atoms: _465  and  _466
REMARK  200  A    between atoms: _466  and  _467
REMARK  201  A    between atoms: _471  and  _473
REMARK  202  A    between atoms: _473  and  _474
REMARK  203  A    between atoms: _473  and  _476
REMARK  204  A    between atoms: _476  and  _477
REMARK  205  A    between atoms: _480  and  _482
REMARK  206  A    between atoms: _482  and  _483
REMARK  207  A    between atoms: _482  and  _485
REMARK  208  A    between atoms: _485  and  _486
REMARK  209  A    between atoms: _489  and  _491
REMARK  210  A    between atoms: _491  and  _492
REMARK  211  A    between atoms: _491  and  _494
REMARK  212  A    between atoms: _497  and  _499
REMARK  213  A    between atoms: _499  and  _500
REMARK  214  A    between atoms: _499  and  _502
REMARK  215  A    between atoms: _502  and  _503
REMARK  216  A    between atoms: _506  and  _508
REMARK  217  A    between atoms: _508  and  _509
REMARK  218  A    between atoms: _508  and  _511
REMARK  219  A    between atoms: _514  and  _516
REMARK  220  A    between atoms: _516  and  _517
REMARK  221  A    between atoms: _520  and  _522
REMARK  222  A    between atoms: _522  and  _523
REMARK  223  A    between atoms: _522  and  _525
REMARK  224  A    between atoms: _525  and  _526
REMARK  225  A    between atoms: _529  and  _531
REMARK  226  A    between atoms: _531  and  _532
REMARK  227  A    between atoms: _531  and  _534
REMARK  228  A    between atoms: _534  and  _535
REMARK  229  A    between atoms: _535  and  _536
REMARK  230  A    between atoms: _536  and  _537
REMARK  231  A    between atoms: _546  and  _548
REMARK  232  A    between atoms: _548  and  _549
REMARK  233  A    between atoms: _548  and  _551
REMARK  234  A    between atoms: _551  and  _552
REMARK  235  A    between atoms: _557  and  _559
REMARK  236  A    between atoms: _559  and  _560
REMARK  237  A    between atoms: _559  and  _562
REMARK  238  A    between atoms: _562  and  _563
REMARK  239  A    between atoms: _568  and  _569
REMARK                            x       y       z     vdW  Elec       q    Type
REMARK                         _______ _______ _______ _____ _____    ______ ____
ROOT
ATOM      1  O   HOH     1      20.002  32.185   5.894  0.00  0.00    +0.000 OA
ENDROOT
TORSDOF 0
REMARK  Name = ../refined-set-2016/1vyg/1vyg_pocket.pdb
REMARK  239 active torsions:
REMARK  status: ('A' for Active; 'I' for Inactive)
REMARK    1  A    between atoms: _1  and  _3
REMARK    2  A    between atoms: _3  and  _4
REMARK    3  A    between atoms: _3  and  _6
REMARK    4  A    between atoms: _6  and  _7
REMARK    5  A    between atoms: _10  and  _12
REMARK    6  A    between atoms: _12  and  _13
REMARK    7  A    between atoms: _12  and  _15
REMARK    8  A    between atoms: _15  and  _16
REMARK    9  A    between atoms: _16  and  _17
REMARK   10  A    between atoms: _20  and  _22
REMARK   11  A    between atoms: _22  and  _23
REMARK   12  A    between atoms: _22  and  _25
REMARK   13  A    between atoms: _25  and  _26
REMARK   14  A    between atoms: _28  and  _30
REMARK   15  A    between atoms: _30  and  _31
REMARK   16  A    between atoms: _30  and  _33
REMARK   17  A    between atoms: _33  and  _34
REMARK   18  A    between atoms: _40  and  _42
REMARK   19  A    between atoms: _42  and  _43
REMARK   20  A    between atoms: _42  and  _45
REMARK   21  A    between atoms: _48  and  _50
REMARK   22  A    between atoms: _50  and  _51
REMARK   23  A    between atoms: _50  and  _53
REMARK   24  A    between atoms: _53  and  _54
REMARK   25  A    between atoms: _54  and  _55
REMARK   26  A    between atoms: _57  and  _59
REMARK   27  A    between atoms: _59  and  _60
REMARK   28  A    between atoms: _59  and  _62
REMARK   29  A    between atoms: _62  and  _63
REMARK   30  A    between atoms: _65  and  _67
REMARK   31  A    between atoms: _67  and  _68
REMARK   32  A    between atoms: _67  and  _70
REMARK   33  A    between atoms: _70  and  _71
REMARK   34  A    between atoms: _74  and  _76
REMARK   35  A    between atoms: _76  and  _77
REMARK   36  A    between atoms: _79  and  _81
REMARK   37  A    between atoms: _81  and  _82
REMARK   38  A    between atoms: _81  and  _84
REMARK   39  A    between atoms: _87  and  _89
REMARK   40  A    between atoms: _89  and  _90
REMARK   41  A    between atoms: _89  and  _92
REMARK   42  A    between atoms: _92  and  _93
REMARK   43  A    between atoms: _95  and  _97
REMARK   44  A    between atoms: _97  and  _98
REMARK   45  A    between atoms: _101  and  _103
REMARK   46  A    between atoms: _103  and  _104
REMARK   47  A    between atoms: _103  and  _106
REMARK   48  A    between atoms: _106  and  _107
REMARK   49  A    between atoms: _110  and  _112
REMARK   50  A    between atoms: _112  and  _113
REMARK   51  A    between atoms: _112  and  _115
REMARK   52  A    between atoms: _115  and  _116
REMARK   53  A    between atoms: _116  and  _117
REMARK   54  A    between atoms: _117  and  _118
REMARK   55  A    between atoms: _127  and  _129
REMARK   56  A    between atoms: _129  and  _130
REMARK   57  A    between atoms: _129  and  _132
REMARK   58  A    between atoms: _132  and  _133
REMARK   59  A    between atoms: _133  and  _134
REMARK   60  A    between atoms: _139  and  _141
REMARK   61  A    between atoms: _141  and  _142
REMARK   62  A    between atoms: _141  and  _144
REMARK   63  A    between atoms: _144  and  _145
REMARK   64  A    between atoms: _148  and  _150
REMARK   65  A    between atoms: _150  and  _151
REMARK   66  A    between atoms: _153  and  _155
REMARK   67  A    between atoms: _155  and  _156
REMARK   68  A    between atoms: _155  and  _158
REMARK   69  A    between atoms: _158  and  _159
REMARK   70  A    between atoms: _164  and  _166
REMARK   71  A    between atoms: _166  and  _167
REMARK   72  A    between atoms: _166  and  _169
REMARK   73  A    between atoms: _169  and  _170
REMARK   74  A    between atoms: _173  and  _175
REMARK   75  A    between atoms: _175  and  _176
REMARK   76  A    between atoms: _175  and  _178
REMARK   77  A    between atoms: _181  and  _183
REMARK   78  A    between atoms: _183  and  _184
REMARK   79  A    between atoms: _183  and  _186
REMARK   80  A    between atoms: _186  and  _187
REMARK   81  A    between atoms: _191  and  _192
REMARK   82  A    between atoms: _197  and  _199
REMARK   83  A    between atoms: _199  and  _200
REMARK   84  A    between atoms: _199  and  _202
REMARK   85  A    between atoms: _202  and  _203
REMARK   86  A    between atoms: _206  and  _208
REMARK   87  A    between atoms: _208  and  _209
REMARK   88  A    between atoms: _208  and  _211
REMARK   89  A    between atoms: _214  and  _216
REMARK   90  A    between atoms: _216  and  _217
REMARK   91  A    between atoms: _216  and  _219
REMARK   92  A    between atoms: _219  and  _220
REMARK   93  A    between atoms: _226  and  _228
REMARK   94  A    between atoms: _228  and  _229
REMARK   95  A    between atoms: _228  and  _231
REMARK   96  A    between atoms: _231  and  _232
REMARK   97  A    between atoms: _232  and  _233
REMARK   98  A    between atoms: _235  and  _237
REMARK   99  A    between atoms: _237  and  _238
REMARK  100  A    between atoms: _237  and  _240
REMARK  101  A    between atoms: _240  and  _241
REMARK  102  A    between atoms: _244  and  _246
REMARK  103  A    between atoms: _246  and  _247
REMARK  104  A    between atoms: _246  and  _249
REMARK  105  A    between atoms: _249  and  _250
REMARK  106  A    between atoms: _250  and  _251
REMARK  107  A    between atoms: _254  and  _256
REMARK  108  A    between atoms: _256  and  _257
REMARK  109  A    between atoms: _256  and  _259
REMARK  110  A    between atoms: _259  and  _260
REMARK  111  A    between atoms: _262  and  _264
REMARK  112  A    between atoms: _264  and  _265
REMARK  113  A    between atoms: _264  and  _267
REMARK  114  A    between atoms: _267  and  _268
REMARK  115  A    between atoms: _271  and  _273
REMARK  116  A    between atoms: _273  and  _274
REMARK  117  A    between atoms: _273  and  _276
REMARK  118  A    between atoms: _276  and  _277
REMARK  119  A    between atoms: _283  and  _285
REMARK  120  A    between atoms: _285  and  _286
REMARK  121  A    between atoms: _285  and  _288
REMARK  122  A    between atoms: _288  and  _289
REMARK  123  A    between atoms: _289  and  _290
REMARK  124  A    between atoms: _290  and  _291
REMARK  125  A    between atoms: _291  and  _292
REMARK  126  A    between atoms: _296  and  _298
REMARK  127  A    between atoms: _298  and  _299
REMARK  128  A    between atoms: _298  and  _301
REMARK  129  A    between atoms: _301  and  _302
REMARK  130  A    between atoms: _307  and  _309
REMARK  131  A    between atoms: _309  and  _310
REMARK  132  A    between atoms: _309  and  _312
REMARK  133  A    between atoms: _312  and  _313
REMARK  134  A    between atoms: _316  and  _318
REMARK  135  A    between atoms: _318  and  _319
REMARK  136  A    between atoms: _318  and  _321
REMARK  137  A    between atoms: _321  and  _322
REMARK  138  A    between atoms: _322  and  _323
REMARK  139  A    between atoms: _326  and  _328
REMARK  140  A    between atoms: _328  and  _329
REMARK  141  A    between atoms: _328  and  _331
REMARK  142  A    between atoms: _331  and  _332
REMARK  143  A    between atoms: _335  and  _337
REMARK  144  A    between atoms: _337  and  _338
REMARK  145  A    between atoms: _337  and  _340
REMARK  146  A    between atoms: _340  and  _341
REMARK  147  A    between atoms: _343  and  _345
REMARK  148  A    between atoms: _345  and  _346
REMARK  149  A    between atoms: _345  and  _348
REMARK  150  A    between atoms: _348  and  _349
REMARK  151  A    between atoms: _352  and  _354
REMARK  152  A    between atoms: _354  and  _355
REMARK  153  A    between atoms: _357  and  _359
REMARK  154  A    between atoms: _359  and  _360
REMARK  155  A    between atoms: _359  and  _362
REMARK  156  A    between atoms: _362  and  _363
REMARK  157  A    between atoms: _363  and  _364
REMARK  158  A    between atoms: _364  and  _365
REMARK  159  A    between atoms: _374  and  _376
REMARK  160  A    between atoms: _376  and  _377
REMARK  161  A    between atoms: _376  and  _379
REMARK  162  A    between atoms: _379  and  _380
REMARK  163  A    between atoms: _380  and  _381
REMARK  164  A    between atoms: _386  and  _388
REMARK  165  A    between atoms: _388  and  _389
REMARK  166  A    between atoms: _388  and  _391
REMARK  167  A    between atoms: _391  and  _392
REMARK  168  A    between atoms: _392  and  _393
REMARK  169  A    between atoms: _398  and  _400
REMARK  170  A    between atoms: _400  and  _401
REMARK  171  A    between atoms: _400  and  _403
REMARK  172  A    between atoms: _403  and  _404
REMARK  173  A    between atoms: _407  and  _409
REMARK  174  A    between atoms: _409  and  _410
REMARK  175  A    between atoms: _409  and  _412
REMARK  176  A    between atoms: _415  and  _417
REMARK  177  A    between atoms: _417  and  _418
REMARK  178  A    between atoms: _417  and  _420
REMARK  179  A    between atoms: _420  and  _421
REMARK  180  A    between atoms: _424  and  _426
REMARK  181  A    between atoms: _426  and  _427
REMARK  182  A    between atoms: _426  and  _429
REMARK  183  A    between atoms: _432  and  _434
REMARK  184  A    between atoms: _434  and  _435
REMARK  185  A    between atoms: _434  and  _437
REMARK  186  A    between atoms: _437  and  _438
REMARK  187  A    between atoms: _438  and  _439
REMARK  188  A    between atoms: _439  and  _440
REMARK  189  A    between atoms: _449  and  _451
REMARK  190  A    between atoms: _451  and  _452
REMARK  191  A    between atoms: _451  and  _454
REMARK  192  A    between atoms: _454  and  _455
REMARK  193  A    between atoms: _455  and  _456
REMARK  194  A    between atoms: _458  and  _460
REMARK  195  A    between atoms: _460  and  _461
REMARK  196  A    between atoms: _460  and  _463
REMARK  197  A    between atoms: _463  and  _464
REMARK  198  A    between atoms: _464  and  _465
REMARK  199  A    between atoms: _465  and  _466
REMARK  200  A    between atoms: _466  and  _467
REMARK  201  A    between atoms: _471  and  _473
REMARK  202  A    between atoms: _473  and  _474
REMARK  203  A    between atoms: _473  and  _476
REMARK  204  A    between atoms: _476  and  _477
REMARK  205  A    between atoms: _480  and  _482
REMARK  206  A    between atoms: _482  and  _483
REMARK  207  A    between atoms: _482  and  _485
REMARK  208  A    between atoms: _485  and  _486
REMARK  209  A    between atoms: _489  and  _491
REMARK  210  A    between atoms: _491  and  _492
REMARK  211  A    between atoms: _491  and  _494
REMARK  212  A    between atoms: _497  and  _499
REMARK  213  A    between atoms: _499  and  _500
REMARK  214  A    between atoms: _499  and  _502
REMARK  215  A    between atoms: _502  and  _503
REMARK  216  A    between atoms: _506  and  _508
REMARK  217  A    between atoms: _508  and  _509
REMARK  218  A    between atoms: _508  and  _511
REMARK  219  A    between atoms: _514  and  _516
REMARK  220  A    between atoms: _516  and  _517
REMARK  221  A    between atoms: _520  and  _522
REMARK  222  A    between atoms: _522  and  _523
REMARK  223  A    between atoms: _522  and  _525
REMARK  224  A    between atoms: _525  and  _526
REMARK  225  A    between atoms: _529  and  _531
REMARK  226  A    between atoms: _531  and  _532
REMARK  227  A    between atoms: _531  and  _534
REMARK  228  A    between atoms: _534  and  _535
REMARK  229  A    between atoms: _535  and  _536
REMARK  230  A    between atoms: _536  and  _537
REMARK  231  A    between atoms: _546  and  _548
REMARK  232  A    between atoms: _548  and  _549
REMARK  233  A    between atoms: _548  and  _551
REMARK  234  A    between atoms: _551  and  _552
REMARK  235  A    between atoms: _557  and  _559
REMARK  236  A    between atoms: _559  and  _560
REMARK  237  A    between atoms: _559  and  _562
REMARK  238  A    between atoms: _562  and  _563
REMARK  239  A    between atoms: _568  and  _569
REMARK                            x       y       z     vdW  Elec       q    Type
REMARK                         _______ _______ _______ _____ _____    ______ ____
ROOT
ATOM      1  O   HOH     1      17.098  34.797   6.505  0.00  0.00    +0.000 OA
ENDROOT
TORSDOF 0
