REMARK  Name = ../refined-set-2016/4ufj/4ufj_pocket.pdb
REMARK  134 active torsions:
REMARK  status: ('A' for Active; 'I' for Inactive)
REMARK    1  A    between atoms: _1  and  _3
REMARK    2  A    between atoms: _3  and  _4
REMARK    3  A    between atoms: _3  and  _6
REMARK    4  A    between atoms: _9  and  _11
REMARK    5  A    between atoms: _11  and  _12
REMARK    6  A    between atoms: _14  and  _16
REMARK    7  A    between atoms: _16  and  _17
REMARK    8  A    between atoms: _19  and  _21
REMARK    9  A    between atoms: _21  and  _22
REMARK   10  A    between atoms: _24  and  _26
REMARK   11  A    between atoms: _26  and  _27
REMARK   12  A    between atoms: _26  and  _29
REMARK   13  A    between atoms: _29  and  _30
REMARK   14  A    between atoms: _33  and  _35
REMARK   15  A    between atoms: _35  and  _36
REMARK   16  A    between atoms: _35  and  _38
REMARK   17  A    between atoms: _38  and  _39
REMARK   18  A    between atoms: _39  and  _40
REMARK   19  A    between atoms: _40  and  _41
REMARK   20  A    between atoms: _41  and  _42
REMARK   21  A    between atoms: _46  and  _48
REMARK   22  A    between atoms: _48  and  _49
REMARK   23  A    between atoms: _48  and  _51
REMARK   24  A    between atoms: _51  and  _52
REMARK   25  A    between atoms: _52  and  _53
REMARK   26  A    between atoms: _56  and  _58
REMARK   27  A    between atoms: _58  and  _59
REMARK   28  A    between atoms: _58  and  _61
REMARK   29  A    between atoms: _61  and  _62
REMARK   30  A    between atoms: _65  and  _67
REMARK   31  A    between atoms: _67  and  _68
REMARK   32  A    between atoms: _67  and  _70
REMARK   33  A    between atoms: _70  and  _71
REMARK   34  A    between atoms: _74  and  _76
REMARK   35  A    between atoms: _76  and  _77
REMARK   36  A    between atoms: _76  and  _79
REMARK   37  A    between atoms: _79  and  _80
REMARK   38  A    between atoms: _83  and  _85
REMARK   39  A    between atoms: _85  and  _86
REMARK   40  A    between atoms: _85  and  _88
REMARK   41  A    between atoms: _88  and  _89
REMARK   42  A    between atoms: _92  and  _94
REMARK   43  A    between atoms: _94  and  _95
REMARK   44  A    between atoms: _94  and  _97
REMARK   45  A    between atoms: _97  and  _98
REMARK   46  A    between atoms: _108  and  _110
REMARK   47  A    between atoms: _110  and  _111
REMARK   48  A    between atoms: _110  and  _113
REMARK   49  A    between atoms: _113  and  _114
REMARK   50  A    between atoms: _119  and  _121
REMARK   51  A    between atoms: _121  and  _122
REMARK   52  A    between atoms: _121  and  _124
REMARK   53  A    between atoms: _124  and  _125
REMARK   54  A    between atoms: _125  and  _126
REMARK   55  A    between atoms: _129  and  _131
REMARK   56  A    between atoms: _131  and  _132
REMARK   57  A    between atoms: _131  and  _134
REMARK   58  A    between atoms: _134  and  _135
REMARK   59  A    between atoms: _135  and  _136
REMARK   60  A    between atoms: _136  and  _137
REMARK   61  A    between atoms: _146  and  _148
REMARK   62  A    between atoms: _148  and  _149
REMARK   63  A    between atoms: _148  and  _151
REMARK   64  A    between atoms: _151  and  _152
REMARK   65  A    between atoms: _155  and  _157
REMARK   66  A    between atoms: _157  and  _158
REMARK   67  A    between atoms: _157  and  _160
REMARK   68  A    between atoms: _160  and  _161
REMARK   69  A    between atoms: _166  and  _168
REMARK   70  A    between atoms: _168  and  _169
REMARK   71  A    between atoms: _168  and  _171
REMARK   72  A    between atoms: _171  and  _172
REMARK   73  A    between atoms: _177  and  _178
REMARK   74  A    between atoms: _180  and  _182
REMARK   75  A    between atoms: _182  and  _183
REMARK   76  A    between atoms: _182  and  _185
REMARK   77  A    between atoms: _185  and  _186
REMARK   78  A    between atoms: _188  and  _190
REMARK   79  A    between atoms: _190  and  _191
REMARK   80  A    between atoms: _190  and  _193
REMARK   81  A    between atoms: _193  and  _194
REMARK   82  A    between atoms: _194  and  _195
REMARK   83  A    between atoms: _198  and  _200
REMARK   84  A    between atoms: _200  and  _201
REMARK   85  A    between atoms: _200  and  _203
REMARK   86  A    between atoms: _203  and  _204
REMARK   87  A    between atoms: _207  and  _209
REMARK   88  A    between atoms: _209  and  _210
REMARK   89  A    between atoms: _209  and  _212
REMARK   90  A    between atoms: _212  and  _213
REMARK   91  A    between atoms: _219  and  _221
REMARK   92  A    between atoms: _221  and  _222
REMARK   93  A    between atoms: _221  and  _224
REMARK   94  A    between atoms: _224  and  _225
REMARK   95  A    between atoms: _227  and  _229
REMARK   96  A    between atoms: _229  and  _230
REMARK   97  A    between atoms: _229  and  _232
REMARK   98  A    between atoms: _232  and  _233
REMARK   99  A    between atoms: _236  and  _238
REMARK  100  A    between atoms: _238  and  _239
REMARK  101  A    between atoms: _238  and  _241
REMARK  102  A    between atoms: _241  and  _242
REMARK  103  A    between atoms: _252  and  _254
REMARK  104  A    between atoms: _254  and  _255
REMARK  105  A    between atoms: _254  and  _257
REMARK  106  A    between atoms: _257  and  _258
REMARK  107  A    between atoms: _264  and  _265
REMARK  108  A    between atoms: _270  and  _272
REMARK  109  A    between atoms: _272  and  _273
REMARK  110  A    between atoms: _272  and  _275
REMARK  111  A    between atoms: _275  and  _276
REMARK  112  A    between atoms: _281  and  _282
REMARK  113  A    between atoms: _284  and  _286
REMARK  114  A    between atoms: _286  and  _287
REMARK  115  A    between atoms: _286  and  _289
REMARK  116  A    between atoms: _289  and  _290
REMARK  117  A    between atoms: _292  and  _294
REMARK  118  A    between atoms: _294  and  _295
REMARK  119  A    between atoms: _294  and  _297
REMARK  120  A    between atoms: _297  and  _298
REMARK  121  A    between atoms: _301  and  _303
REMARK  122  A    between atoms: _303  and  _304
REMARK  123  A    between atoms: _303  and  _306
REMARK  124  A    between atoms: _306  and  _307
REMARK  125  A    between atoms: _307  and  _308
REMARK  126  A    between atoms: _308  and  _309
REMARK  127  A    between atoms: _318  and  _320
REMARK  128  A    between atoms: _320  and  _321
REMARK  129  A    between atoms: _320  and  _323
REMARK  130  A    between atoms: _323  and  _324
REMARK  131  A    between atoms: _334  and  _336
REMARK  132  A    between atoms: _336  and  _337
REMARK  133  A    between atoms: _336  and  _339
REMARK  134  A    between atoms: _339  and  _340
REMARK                            x       y       z     vdW  Elec       q    Type
REMARK                         _______ _______ _______ _____ _____    ______ ____
ROOT
ATOM      1  CA  VAL A   1      79.536  98.790  22.263  0.00  0.00    +0.133 C 
ENDROOT
BRANCH   1   2
ATOM      2  CB  VAL A   1      78.905  97.531  21.641  0.00  0.00    +0.023 C 
ATOM      3  CG2 VAL A   1      78.005  96.839  22.655  0.00  0.00    +0.002 C 
ATOM      4  CG1 VAL A   1      78.133  97.871  20.362  0.00  0.00    +0.002 C 
ENDBRANCH   1   2
BRANCH   1   5
ATOM      5  N   VAL A   1      80.431  99.461  21.337  0.00  0.00    -0.239 NA
ATOM      6  H   VAL A   1      81.143  98.902  20.825  0.00  0.00    +0.142 HD
ENDBRANCH   1   5
BRANCH   1   7
ATOM      7  C   VAL A   1      80.244  98.367  23.546  0.00  0.00    +0.224 C 
ATOM      8  O   VAL A   1      81.278  97.705  23.515  0.00  0.00    -0.287 OA
ENDBRANCH   1   7
TORSDOF 3
REMARK  Name = ../refined-set-2016/4ufj/4ufj_pocket.pdb
REMARK  134 active torsions:
REMARK  status: ('A' for Active; 'I' for Inactive)
REMARK    1  A    between atoms: _1  and  _3
REMARK    2  A    between atoms: _3  and  _4
REMARK    3  A    between atoms: _3  and  _6
REMARK    4  A    between atoms: _9  and  _11
REMARK    5  A    between atoms: _11  and  _12
REMARK    6  A    between atoms: _14  and  _16
REMARK    7  A    between atoms: _16  and  _17
REMARK    8  A    between atoms: _19  and  _21
REMARK    9  A    between atoms: _21  and  _22
REMARK   10  A    between atoms: _24  and  _26
REMARK   11  A    between atoms: _26  and  _27
REMARK   12  A    between atoms: _26  and  _29
REMARK   13  A    between atoms: _29  and  _30
REMARK   14  A    between atoms: _33  and  _35
REMARK   15  A    between atoms: _35  and  _36
REMARK   16  A    between atoms: _35  and  _38
REMARK   17  A    between atoms: _38  and  _39
REMARK   18  A    between atoms: _39  and  _40
REMARK   19  A    between atoms: _40  and  _41
REMARK   20  A    between atoms: _41  and  _42
REMARK   21  A    between atoms: _46  and  _48
REMARK   22  A    between atoms: _48  and  _49
REMARK   23  A    between atoms: _48  and  _51
REMARK   24  A    between atoms: _51  and  _52
REMARK   25  A    between atoms: _52  and  _53
REMARK   26  A    between atoms: _56  and  _58
REMARK   27  A    between atoms: _58  and  _59
REMARK   28  A    between atoms: _58  and  _61
REMARK   29  A    between atoms: _61  and  _62
REMARK   30  A    between atoms: _65  and  _67
REMARK   31  A    between atoms: _67  and  _68
REMARK   32  A    between atoms: _67  and  _70
REMARK   33  A    between atoms: _70  and  _71
REMARK   34  A    between atoms: _74  and  _76
REMARK   35  A    between atoms: _76  and  _77
REMARK   36  A    between atoms: _76  and  _79
REMARK   37  A    between atoms: _79  and  _80
REMARK   38  A    between atoms: _83  and  _85
REMARK   39  A    between atoms: _85  and  _86
REMARK   40  A    between atoms: _85  and  _88
REMARK   41  A    between atoms: _88  and  _89
REMARK   42  A    between atoms: _92  and  _94
REMARK   43  A    between atoms: _94  and  _95
REMARK   44  A    between atoms: _94  and  _97
REMARK   45  A    between atoms: _97  and  _98
REMARK   46  A    between atoms: _108  and  _110
REMARK   47  A    between atoms: _110  and  _111
REMARK   48  A    between atoms: _110  and  _113
REMARK   49  A    between atoms: _113  and  _114
REMARK   50  A    between atoms: _119  and  _121
REMARK   51  A    between atoms: _121  and  _122
REMARK   52  A    between atoms: _121  and  _124
REMARK   53  A    between atoms: _124  and  _125
REMARK   54  A    between atoms: _125  and  _126
REMARK   55  A    between atoms: _129  and  _131
REMARK   56  A    between atoms: _131  and  _132
REMARK   57  A    between atoms: _131  and  _134
REMARK   58  A    between atoms: _134  and  _135
REMARK   59  A    between atoms: _135  and  _136
REMARK   60  A    between atoms: _136  and  _137
REMARK   61  A    between atoms: _146  and  _148
REMARK   62  A    between atoms: _148  and  _149
REMARK   63  A    between atoms: _148  and  _151
REMARK   64  A    between atoms: _151  and  _152
REMARK   65  A    between atoms: _155  and  _157
REMARK   66  A    between atoms: _157  and  _158
REMARK   67  A    between atoms: _157  and  _160
REMARK   68  A    between atoms: _160  and  _161
REMARK   69  A    between atoms: _166  and  _168
REMARK   70  A    between atoms: _168  and  _169
REMARK   71  A    between atoms: _168  and  _171
REMARK   72  A    between atoms: _171  and  _172
REMARK   73  A    between atoms: _177  and  _178
REMARK   74  A    between atoms: _180  and  _182
REMARK   75  A    between atoms: _182  and  _183
REMARK   76  A    between atoms: _182  and  _185
REMARK   77  A    between atoms: _185  and  _186
REMARK   78  A    between atoms: _188  and  _190
REMARK   79  A    between atoms: _190  and  _191
REMARK   80  A    between atoms: _190  and  _193
REMARK   81  A    between atoms: _193  and  _194
REMARK   82  A    between atoms: _194  and  _195
REMARK   83  A    between atoms: _198  and  _200
REMARK   84  A    between atoms: _200  and  _201
REMARK   85  A    between atoms: _200  and  _203
REMARK   86  A    between atoms: _203  and  _204
REMARK   87  A    between atoms: _207  and  _209
REMARK   88  A    between atoms: _209  and  _210
REMARK   89  A    between atoms: _209  and  _212
REMARK   90  A    between atoms: _212  and  _213
REMARK   91  A    between atoms: _219  and  _221
REMARK   92  A    between atoms: _221  and  _222
REMARK   93  A    between atoms: _221  and  _224
REMARK   94  A    between atoms: _224  and  _225
REMARK   95  A    between atoms: _227  and  _229
REMARK   96  A    between atoms: _229  and  _230
REMARK   97  A    between atoms: _229  and  _232
REMARK   98  A    between atoms: _232  and  _233
REMARK   99  A    between atoms: _236  and  _238
REMARK  100  A    between atoms: _238  and  _239
REMARK  101  A    between atoms: _238  and  _241
REMARK  102  A    between atoms: _241  and  _242
REMARK  103  A    between atoms: _252  and  _254
REMARK  104  A    between atoms: _254  and  _255
REMARK  105  A    between atoms: _254  and  _257
REMARK  106  A    between atoms: _257  and  _258
REMARK  107  A    between atoms: _264  and  _265
REMARK  108  A    between atoms: _270  and  _272
REMARK  109  A    between atoms: _272  and  _273
REMARK  110  A    between atoms: _272  and  _275
REMARK  111  A    between atoms: _275  and  _276
REMARK  112  A    between atoms: _281  and  _282
REMARK  113  A    between atoms: _284  and  _286
REMARK  114  A    between atoms: _286  and  _287
REMARK  115  A    between atoms: _286  and  _289
REMARK  116  A    between atoms: _289  and  _290
REMARK  117  A    between atoms: _292  and  _294
REMARK  118  A    between atoms: _294  and  _295
REMARK  119  A    between atoms: _294  and  _297
REMARK  120  A    between atoms: _297  and  _298
REMARK  121  A    between atoms: _301  and  _303
REMARK  122  A    between atoms: _303  and  _304
REMARK  123  A    between atoms: _303  and  _306
REMARK  124  A    between atoms: _306  and  _307
REMARK  125  A    between atoms: _307  and  _308
REMARK  126  A    between atoms: _308  and  _309
REMARK  127  A    between atoms: _318  and  _320
REMARK  128  A    between atoms: _320  and  _321
REMARK  129  A    between atoms: _320  and  _323
REMARK  130  A    between atoms: _323  and  _324
REMARK  131  A    between atoms: _334  and  _336
REMARK  132  A    between atoms: _336  and  _337
REMARK  133  A    between atoms: _336  and  _339
REMARK  134  A    between atoms: _339  and  _340
REMARK                            x       y       z     vdW  Elec       q    Type
REMARK                         _______ _______ _______ _____ _____    ______ ____
ROOT
ATOM      1  CA  GLY A   2      77.224  91.661  25.173  0.00  0.00    +0.176 C 
ENDROOT
BRANCH   1   3
ATOM      2  C   GLY A   1      78.219  93.821  25.705  0.00  0.00    +0.240 C 
ATOM      3  N   GLY A   2      77.294  92.896  25.926  0.00  0.00    -0.295 N 
ATOM      4  H   GLY A   2      76.589  93.065  26.672  0.00  0.00    +0.150 HD
ATOM      5  O   GLY A   1      78.960  93.824  24.720  0.00  0.00    -0.274 OA
BRANCH   2   6
ATOM      6  CA  GLY A   1      78.292  94.916  26.748  0.00  0.00    +0.169 C 
BRANCH   6   7
ATOM      7  N   GLY A   1      79.292  95.907  26.421  0.00  0.00    -0.236 NA
ATOM      8  H   GLY A   1      80.269  95.609  26.227  0.00  0.00    +0.142 HD
ENDBRANCH   6   7
ENDBRANCH   2   6
ENDBRANCH   1   3
BRANCH   1   9
ATOM      9  C   GLY A   2      78.553  90.940  25.028  0.00  0.00    +0.243 C 
ATOM     10  N   GLY A   3      79.159  90.488  26.126  0.00  0.00    -0.296 N 
ATOM     11  H   GLY A   3      80.055  89.973  26.005  0.00  0.00    +0.150 HD
ATOM     12  O   GLY A   2      79.025  90.782  23.907  0.00  0.00    -0.273 OA
BRANCH  10  13
ATOM     13  CA  GLY A   3      78.659  90.662  27.482  0.00  0.00    +0.163 C 
BRANCH  13  14
ATOM     14  C   GLY A   3      79.816  90.782  28.465  0.00  0.00    +0.229 C 
ATOM     15  O   GLY A   3      80.762  90.005  28.396  0.00  0.00    -0.286 OA
ENDBRANCH  13  14
ENDBRANCH  10  13
ENDBRANCH   1   9
TORSDOF 6
REMARK  Name = ../refined-set-2016/4ufj/4ufj_pocket.pdb
REMARK  134 active torsions:
REMARK  status: ('A' for Active; 'I' for Inactive)
REMARK    1  A    between atoms: _1  and  _3
REMARK    2  A    between atoms: _3  and  _4
REMARK    3  A    between atoms: _3  and  _6
REMARK    4  A    between atoms: _9  and  _11
REMARK    5  A    between atoms: _11  and  _12
REMARK    6  A    between atoms: _14  and  _16
REMARK    7  A    between atoms: _16  and  _17
REMARK    8  A    between atoms: _19  and  _21
REMARK    9  A    between atoms: _21  and  _22
REMARK   10  A    between atoms: _24  and  _26
REMARK   11  A    between atoms: _26  and  _27
REMARK   12  A    between atoms: _26  and  _29
REMARK   13  A    between atoms: _29  and  _30
REMARK   14  A    between atoms: _33  and  _35
REMARK   15  A    between atoms: _35  and  _36
REMARK   16  A    between atoms: _35  and  _38
REMARK   17  A    between atoms: _38  and  _39
REMARK   18  A    between atoms: _39  and  _40
REMARK   19  A    between atoms: _40  and  _41
REMARK   20  A    between atoms: _41  and  _42
REMARK   21  A    between atoms: _46  and  _48
REMARK   22  A    between atoms: _48  and  _49
REMARK   23  A    between atoms: _48  and  _51
REMARK   24  A    between atoms: _51  and  _52
REMARK   25  A    between atoms: _52  and  _53
REMARK   26  A    between atoms: _56  and  _58
REMARK   27  A    between atoms: _58  and  _59
REMARK   28  A    between atoms: _58  and  _61
REMARK   29  A    between atoms: _61  and  _62
REMARK   30  A    between atoms: _65  and  _67
REMARK   31  A    between atoms: _67  and  _68
REMARK   32  A    between atoms: _67  and  _70
REMARK   33  A    between atoms: _70  and  _71
REMARK   34  A    between atoms: _74  and  _76
REMARK   35  A    between atoms: _76  and  _77
REMARK   36  A    between atoms: _76  and  _79
REMARK   37  A    between atoms: _79  and  _80
REMARK   38  A    between atoms: _83  and  _85
REMARK   39  A    between atoms: _85  and  _86
REMARK   40  A    between atoms: _85  and  _88
REMARK   41  A    between atoms: _88  and  _89
REMARK   42  A    between atoms: _92  and  _94
REMARK   43  A    between atoms: _94  and  _95
REMARK   44  A    between atoms: _94  and  _97
REMARK   45  A    between atoms: _97  and  _98
REMARK   46  A    between atoms: _108  and  _110
REMARK   47  A    between atoms: _110  and  _111
REMARK   48  A    between atoms: _110  and  _113
REMARK   49  A    between atoms: _113  and  _114
REMARK   50  A    between atoms: _119  and  _121
REMARK   51  A    between atoms: _121  and  _122
REMARK   52  A    between atoms: _121  and  _124
REMARK   53  A    between atoms: _124  and  _125
REMARK   54  A    between atoms: _125  and  _126
REMARK   55  A    between atoms: _129  and  _131
REMARK   56  A    between atoms: _131  and  _132
REMARK   57  A    between atoms: _131  and  _134
REMARK   58  A    between atoms: _134  and  _135
REMARK   59  A    between atoms: _135  and  _136
REMARK   60  A    between atoms: _136  and  _137
REMARK   61  A    between atoms: _146  and  _148
REMARK   62  A    between atoms: _148  and  _149
REMARK   63  A    between atoms: _148  and  _151
REMARK   64  A    between atoms: _151  and  _152
REMARK   65  A    between atoms: _155  and  _157
REMARK   66  A    between atoms: _157  and  _158
REMARK   67  A    between atoms: _157  and  _160
REMARK   68  A    between atoms: _160  and  _161
REMARK   69  A    between atoms: _166  and  _168
REMARK   70  A    between atoms: _168  and  _169
REMARK   71  A    between atoms: _168  and  _171
REMARK   72  A    between atoms: _171  and  _172
REMARK   73  A    between atoms: _177  and  _178
REMARK   74  A    between atoms: _180  and  _182
REMARK   75  A    between atoms: _182  and  _183
REMARK   76  A    between atoms: _182  and  _185
REMARK   77  A    between atoms: _185  and  _186
REMARK   78  A    between atoms: _188  and  _190
REMARK   79  A    between atoms: _190  and  _191
REMARK   80  A    between atoms: _190  and  _193
REMARK   81  A    between atoms: _193  and  _194
REMARK   82  A    between atoms: _194  and  _195
REMARK   83  A    between atoms: _198  and  _200
REMARK   84  A    between atoms: _200  and  _201
REMARK   85  A    between atoms: _200  and  _203
REMARK   86  A    between atoms: _203  and  _204
REMARK   87  A    between atoms: _207  and  _209
REMARK   88  A    between atoms: _209  and  _210
REMARK   89  A    between atoms: _209  and  _212
REMARK   90  A    between atoms: _212  and  _213
REMARK   91  A    between atoms: _219  and  _221
REMARK   92  A    between atoms: _221  and  _222
REMARK   93  A    between atoms: _221  and  _224
REMARK   94  A    between atoms: _224  and  _225
REMARK   95  A    between atoms: _227  and  _229
REMARK   96  A    between atoms: _229  and  _230
REMARK   97  A    between atoms: _229  and  _232
REMARK   98  A    between atoms: _232  and  _233
REMARK   99  A    between atoms: _236  and  _238
REMARK  100  A    between atoms: _238  and  _239
REMARK  101  A    between atoms: _238  and  _241
REMARK  102  A    between atoms: _241  and  _242
REMARK  103  A    between atoms: _252  and  _254
REMARK  104  A    between atoms: _254  and  _255
REMARK  105  A    between atoms: _254  and  _257
REMARK  106  A    between atoms: _257  and  _258
REMARK  107  A    between atoms: _264  and  _265
REMARK  108  A    between atoms: _270  and  _272
REMARK  109  A    between atoms: _272  and  _273
REMARK  110  A    between atoms: _272  and  _275
REMARK  111  A    between atoms: _275  and  _276
REMARK  112  A    between atoms: _281  and  _282
REMARK  113  A    between atoms: _284  and  _286
REMARK  114  A    between atoms: _286  and  _287
REMARK  115  A    between atoms: _286  and  _289
REMARK  116  A    between atoms: _289  and  _290
REMARK  117  A    between atoms: _292  and  _294
REMARK  118  A    between atoms: _294  and  _295
REMARK  119  A    between atoms: _294  and  _297
REMARK  120  A    between atoms: _297  and  _298
REMARK  121  A    between atoms: _301  and  _303
REMARK  122  A    between atoms: _303  and  _304
REMARK  123  A    between atoms: _303  and  _306
REMARK  124  A    between atoms: _306  and  _307
REMARK  125  A    between atoms: _307  and  _308
REMARK  126  A    between atoms: _308  and  _309
REMARK  127  A    between atoms: _318  and  _320
REMARK  128  A    between atoms: _320  and  _321
REMARK  129  A    between atoms: _320  and  _323
REMARK  130  A    between atoms: _323  and  _324
REMARK  131  A    between atoms: _334  and  _336
REMARK  132  A    between atoms: _336  and  _337
REMARK  133  A    between atoms: _336  and  _339
REMARK  134  A    between atoms: _339  and  _340
REMARK                            x       y       z     vdW  Elec       q    Type
REMARK                         _______ _______ _______ _____ _____    ______ ____
ROOT
ATOM      1  CA  THR A   1      83.333  93.384  27.883  0.00  0.00    +0.160 C 
ENDROOT
BRANCH   1   2
ATOM      2  N   THR A   1      82.115  93.059  28.610  0.00  0.00    -0.237 NA
ATOM      3  H   THR A   1      81.205  93.420  28.260  0.00  0.00    +0.142 HD
ENDBRANCH   1   2
BRANCH   1   4
ATOM      4  C   THR A   1      84.143  94.437  28.634  0.00  0.00    +0.227 C 
ATOM      5  O   THR A   1      85.351  94.561  28.431  0.00  0.00    -0.287 OA
ENDBRANCH   1   4
BRANCH   1   6
ATOM      6  CB  THR A   1      83.029  93.886  26.434  0.00  0.00    +0.134 C 
ATOM      7  CG2 THR A   1      82.394  92.778  25.604  0.00  0.00    +0.034 C 
BRANCH   6   8
ATOM      8  OG1 THR A   1      82.142  95.012  26.471  0.00  0.00    -0.383 OA
ATOM      9  HG1 THR A   1      82.563  95.746  26.985  0.00  0.00    +0.210 HD
ENDBRANCH   6   8
ENDBRANCH   1   6
TORSDOF 4
REMARK  Name = ../refined-set-2016/4ufj/4ufj_pocket.pdb
REMARK  134 active torsions:
REMARK  status: ('A' for Active; 'I' for Inactive)
REMARK    1  A    between atoms: _1  and  _3
REMARK    2  A    between atoms: _3  and  _4
REMARK    3  A    between atoms: _3  and  _6
REMARK    4  A    between atoms: _9  and  _11
REMARK    5  A    between atoms: _11  and  _12
REMARK    6  A    between atoms: _14  and  _16
REMARK    7  A    between atoms: _16  and  _17
REMARK    8  A    between atoms: _19  and  _21
REMARK    9  A    between atoms: _21  and  _22
REMARK   10  A    between atoms: _24  and  _26
REMARK   11  A    between atoms: _26  and  _27
REMARK   12  A    between atoms: _26  and  _29
REMARK   13  A    between atoms: _29  and  _30
REMARK   14  A    between atoms: _33  and  _35
REMARK   15  A    between atoms: _35  and  _36
REMARK   16  A    between atoms: _35  and  _38
REMARK   17  A    between atoms: _38  and  _39
REMARK   18  A    between atoms: _39  and  _40
REMARK   19  A    between atoms: _40  and  _41
REMARK   20  A    between atoms: _41  and  _42
REMARK   21  A    between atoms: _46  and  _48
REMARK   22  A    between atoms: _48  and  _49
REMARK   23  A    between atoms: _48  and  _51
REMARK   24  A    between atoms: _51  and  _52
REMARK   25  A    between atoms: _52  and  _53
REMARK   26  A    between atoms: _56  and  _58
REMARK   27  A    between atoms: _58  and  _59
REMARK   28  A    between atoms: _58  and  _61
REMARK   29  A    between atoms: _61  and  _62
REMARK   30  A    between atoms: _65  and  _67
REMARK   31  A    between atoms: _67  and  _68
REMARK   32  A    between atoms: _67  and  _70
REMARK   33  A    between atoms: _70  and  _71
REMARK   34  A    between atoms: _74  and  _76
REMARK   35  A    between atoms: _76  and  _77
REMARK   36  A    between atoms: _76  and  _79
REMARK   37  A    between atoms: _79  and  _80
REMARK   38  A    between atoms: _83  and  _85
REMARK   39  A    between atoms: _85  and  _86
REMARK   40  A    between atoms: _85  and  _88
REMARK   41  A    between atoms: _88  and  _89
REMARK   42  A    between atoms: _92  and  _94
REMARK   43  A    between atoms: _94  and  _95
REMARK   44  A    between atoms: _94  and  _97
REMARK   45  A    between atoms: _97  and  _98
REMARK   46  A    between atoms: _108  and  _110
REMARK   47  A    between atoms: _110  and  _111
REMARK   48  A    between atoms: _110  and  _113
REMARK   49  A    between atoms: _113  and  _114
REMARK   50  A    between atoms: _119  and  _121
REMARK   51  A    between atoms: _121  and  _122
REMARK   52  A    between atoms: _121  and  _124
REMARK   53  A    between atoms: _124  and  _125
REMARK   54  A    between atoms: _125  and  _126
REMARK   55  A    between atoms: _129  and  _131
REMARK   56  A    between atoms: _131  and  _132
REMARK   57  A    between atoms: _131  and  _134
REMARK   58  A    between atoms: _134  and  _135
REMARK   59  A    between atoms: _135  and  _136
REMARK   60  A    between atoms: _136  and  _137
REMARK   61  A    between atoms: _146  and  _148
REMARK   62  A    between atoms: _148  and  _149
REMARK   63  A    between atoms: _148  and  _151
REMARK   64  A    between atoms: _151  and  _152
REMARK   65  A    between atoms: _155  and  _157
REMARK   66  A    between atoms: _157  and  _158
REMARK   67  A    between atoms: _157  and  _160
REMARK   68  A    between atoms: _160  and  _161
REMARK   69  A    between atoms: _166  and  _168
REMARK   70  A    between atoms: _168  and  _169
REMARK   71  A    between atoms: _168  and  _171
REMARK   72  A    between atoms: _171  and  _172
REMARK   73  A    between atoms: _177  and  _178
REMARK   74  A    between atoms: _180  and  _182
REMARK   75  A    between atoms: _182  and  _183
REMARK   76  A    between atoms: _182  and  _185
REMARK   77  A    between atoms: _185  and  _186
REMARK   78  A    between atoms: _188  and  _190
REMARK   79  A    between atoms: _190  and  _191
REMARK   80  A    between atoms: _190  and  _193
REMARK   81  A    between atoms: _193  and  _194
REMARK   82  A    between atoms: _194  and  _195
REMARK   83  A    between atoms: _198  and  _200
REMARK   84  A    between atoms: _200  and  _201
REMARK   85  A    between atoms: _200  and  _203
REMARK   86  A    between atoms: _203  and  _204
REMARK   87  A    between atoms: _207  and  _209
REMARK   88  A    between atoms: _209  and  _210
REMARK   89  A    between atoms: _209  and  _212
REMARK   90  A    between atoms: _212  and  _213
REMARK   91  A    between atoms: _219  and  _221
REMARK   92  A    between atoms: _221  and  _222
REMARK   93  A    between atoms: _221  and  _224
REMARK   94  A    between atoms: _224  and  _225
REMARK   95  A    between atoms: _227  and  _229
REMARK   96  A    between atoms: _229  and  _230
REMARK   97  A    between atoms: _229  and  _232
REMARK   98  A    between atoms: _232  and  _233
REMARK   99  A    between atoms: _236  and  _238
REMARK  100  A    between atoms: _238  and  _239
REMARK  101  A    between atoms: _238  and  _241
REMARK  102  A    between atoms: _241  and  _242
REMARK  103  A    between atoms: _252  and  _254
REMARK  104  A    between atoms: _254  and  _255
REMARK  105  A    between atoms: _254  and  _257
REMARK  106  A    between atoms: _257  and  _258
REMARK  107  A    between atoms: _264  and  _265
REMARK  108  A    between atoms: _270  and  _272
REMARK  109  A    between atoms: _272  and  _273
REMARK  110  A    between atoms: _272  and  _275
REMARK  111  A    between atoms: _275  and  _276
REMARK  112  A    between atoms: _281  and  _282
REMARK  113  A    between atoms: _284  and  _286
REMARK  114  A    between atoms: _286  and  _287
REMARK  115  A    between atoms: _286  and  _289
REMARK  116  A    between atoms: _289  and  _290
REMARK  117  A    between atoms: _292  and  _294
REMARK  118  A    between atoms: _294  and  _295
REMARK  119  A    between atoms: _294  and  _297
REMARK  120  A    between atoms: _297  and  _298
REMARK  121  A    between atoms: _301  and  _303
REMARK  122  A    between atoms: _303  and  _304
REMARK  123  A    between atoms: _303  and  _306
REMARK  124  A    between atoms: _306  and  _307
REMARK  125  A    between atoms: _307  and  _308
REMARK  126  A    between atoms: _308  and  _309
REMARK  127  A    between atoms: _318  and  _320
REMARK  128  A    between atoms: _320  and  _321
REMARK  129  A    between atoms: _320  and  _323
REMARK  130  A    between atoms: _323  and  _324
REMARK  131  A    between atoms: _334  and  _336
REMARK  132  A    between atoms: _336  and  _337
REMARK  133  A    between atoms: _336  and  _339
REMARK  134  A    between atoms: _339  and  _340
REMARK                            x       y       z     vdW  Elec       q    Type
REMARK                         _______ _______ _______ _____ _____    ______ ____
ROOT
ATOM      1  CG  LYS A   1      74.721 100.050  21.833  0.00  0.00    -0.000 C 
ENDROOT
BRANCH   1   2
ATOM      2  CB  LYS A   1      75.798 101.116  21.794  0.00  0.00    +0.025 C 
BRANCH   2   3
ATOM      3  CA  LYS A   1      76.029 101.836  23.116  0.00  0.00    +0.133 C 
BRANCH   3   4
ATOM      4  N   LYS A   1      77.119 102.778  22.984  0.00  0.00    -0.239 NA
ATOM      5  H   LYS A   1      78.026 102.447  22.596  0.00  0.00    +0.142 HD
ENDBRANCH   3   4
BRANCH   3   6
ATOM      6  C   LYS A   1      76.316 100.833  24.227  0.00  0.00    +0.224 C 
ATOM      7  O   LYS A   1      77.407 100.263  24.299  0.00  0.00    -0.287 OA
ENDBRANCH   3   6
ENDBRANCH   2   3
ENDBRANCH   1   2
BRANCH   1   8
ATOM      8  CD  LYS A   1      74.337  99.673  20.408  0.00  0.00    -0.024 C 
BRANCH   8   9
ATOM      9  CE  LYS A   1      74.192  98.187  20.258  0.00  0.00    -0.086 C 
BRANCH   9  10
ATOM     10  NZ  LYS A   1      73.764  97.831  18.880  0.00  0.00    +0.380 N 
ATOM     11  HZ1 LYS A   1      73.671  96.798  18.803  0.00  0.00    -0.089 HD
ATOM     12  HZ2 LYS A   1      72.848  98.279  18.676  0.00  0.00    -0.089 HD
ATOM     13  HZ3 LYS A   1      74.475  98.168  18.200  0.00  0.00    -0.089 HD
ENDBRANCH   9  10
ENDBRANCH   8   9
ENDBRANCH   1   8
TORSDOF 7
REMARK  Name = ../refined-set-2016/4ufj/4ufj_pocket.pdb
REMARK  134 active torsions:
REMARK  status: ('A' for Active; 'I' for Inactive)
REMARK    1  A    between atoms: _1  and  _3
REMARK    2  A    between atoms: _3  and  _4
REMARK    3  A    between atoms: _3  and  _6
REMARK    4  A    between atoms: _9  and  _11
REMARK    5  A    between atoms: _11  and  _12
REMARK    6  A    between atoms: _14  and  _16
REMARK    7  A    between atoms: _16  and  _17
REMARK    8  A    between atoms: _19  and  _21
REMARK    9  A    between atoms: _21  and  _22
REMARK   10  A    between atoms: _24  and  _26
REMARK   11  A    between atoms: _26  and  _27
REMARK   12  A    between atoms: _26  and  _29
REMARK   13  A    between atoms: _29  and  _30
REMARK   14  A    between atoms: _33  and  _35
REMARK   15  A    between atoms: _35  and  _36
REMARK   16  A    between atoms: _35  and  _38
REMARK   17  A    between atoms: _38  and  _39
REMARK   18  A    between atoms: _39  and  _40
REMARK   19  A    between atoms: _40  and  _41
REMARK   20  A    between atoms: _41  and  _42
REMARK   21  A    between atoms: _46  and  _48
REMARK   22  A    between atoms: _48  and  _49
REMARK   23  A    between atoms: _48  and  _51
REMARK   24  A    between atoms: _51  and  _52
REMARK   25  A    between atoms: _52  and  _53
REMARK   26  A    between atoms: _56  and  _58
REMARK   27  A    between atoms: _58  and  _59
REMARK   28  A    between atoms: _58  and  _61
REMARK   29  A    between atoms: _61  and  _62
REMARK   30  A    between atoms: _65  and  _67
REMARK   31  A    between atoms: _67  and  _68
REMARK   32  A    between atoms: _67  and  _70
REMARK   33  A    between atoms: _70  and  _71
REMARK   34  A    between atoms: _74  and  _76
REMARK   35  A    between atoms: _76  and  _77
REMARK   36  A    between atoms: _76  and  _79
REMARK   37  A    between atoms: _79  and  _80
REMARK   38  A    between atoms: _83  and  _85
REMARK   39  A    between atoms: _85  and  _86
REMARK   40  A    between atoms: _85  and  _88
REMARK   41  A    between atoms: _88  and  _89
REMARK   42  A    between atoms: _92  and  _94
REMARK   43  A    between atoms: _94  and  _95
REMARK   44  A    between atoms: _94  and  _97
REMARK   45  A    between atoms: _97  and  _98
REMARK   46  A    between atoms: _108  and  _110
REMARK   47  A    between atoms: _110  and  _111
REMARK   48  A    between atoms: _110  and  _113
REMARK   49  A    between atoms: _113  and  _114
REMARK   50  A    between atoms: _119  and  _121
REMARK   51  A    between atoms: _121  and  _122
REMARK   52  A    between atoms: _121  and  _124
REMARK   53  A    between atoms: _124  and  _125
REMARK   54  A    between atoms: _125  and  _126
REMARK   55  A    between atoms: _129  and  _131
REMARK   56  A    between atoms: _131  and  _132
REMARK   57  A    between atoms: _131  and  _134
REMARK   58  A    between atoms: _134  and  _135
REMARK   59  A    between atoms: _135  and  _136
REMARK   60  A    between atoms: _136  and  _137
REMARK   61  A    between atoms: _146  and  _148
REMARK   62  A    between atoms: _148  and  _149
REMARK   63  A    between atoms: _148  and  _151
REMARK   64  A    between atoms: _151  and  _152
REMARK   65  A    between atoms: _155  and  _157
REMARK   66  A    between atoms: _157  and  _158
REMARK   67  A    between atoms: _157  and  _160
REMARK   68  A    between atoms: _160  and  _161
REMARK   69  A    between atoms: _166  and  _168
REMARK   70  A    between atoms: _168  and  _169
REMARK   71  A    between atoms: _168  and  _171
REMARK   72  A    between atoms: _171  and  _172
REMARK   73  A    between atoms: _177  and  _178
REMARK   74  A    between atoms: _180  and  _182
REMARK   75  A    between atoms: _182  and  _183
REMARK   76  A    between atoms: _182  and  _185
REMARK   77  A    between atoms: _185  and  _186
REMARK   78  A    between atoms: _188  and  _190
REMARK   79  A    between atoms: _190  and  _191
REMARK   80  A    between atoms: _190  and  _193
REMARK   81  A    between atoms: _193  and  _194
REMARK   82  A    between atoms: _194  and  _195
REMARK   83  A    between atoms: _198  and  _200
REMARK   84  A    between atoms: _200  and  _201
REMARK   85  A    between atoms: _200  and  _203
REMARK   86  A    between atoms: _203  and  _204
REMARK   87  A    between atoms: _207  and  _209
REMARK   88  A    between atoms: _209  and  _210
REMARK   89  A    between atoms: _209  and  _212
REMARK   90  A    between atoms: _212  and  _213
REMARK   91  A    between atoms: _219  and  _221
REMARK   92  A    between atoms: _221  and  _222
REMARK   93  A    between atoms: _221  and  _224
REMARK   94  A    between atoms: _224  and  _225
REMARK   95  A    between atoms: _227  and  _229
REMARK   96  A    between atoms: _229  and  _230
REMARK   97  A    between atoms: _229  and  _232
REMARK   98  A    between atoms: _232  and  _233
REMARK   99  A    between atoms: _236  and  _238
REMARK  100  A    between atoms: _238  and  _239
REMARK  101  A    between atoms: _238  and  _241
REMARK  102  A    between atoms: _241  and  _242
REMARK  103  A    between atoms: _252  and  _254
REMARK  104  A    between atoms: _254  and  _255
REMARK  105  A    between atoms: _254  and  _257
REMARK  106  A    between atoms: _257  and  _258
REMARK  107  A    between atoms: _264  and  _265
REMARK  108  A    between atoms: _270  and  _272
REMARK  109  A    between atoms: _272  and  _273
REMARK  110  A    between atoms: _272  and  _275
REMARK  111  A    between atoms: _275  and  _276
REMARK  112  A    between atoms: _281  and  _282
REMARK  113  A    between atoms: _284  and  _286
REMARK  114  A    between atoms: _286  and  _287
REMARK  115  A    between atoms: _286  and  _289
REMARK  116  A    between atoms: _289  and  _290
REMARK  117  A    between atoms: _292  and  _294
REMARK  118  A    between atoms: _294  and  _295
REMARK  119  A    between atoms: _294  and  _297
REMARK  120  A    between atoms: _297  and  _298
REMARK  121  A    between atoms: _301  and  _303
REMARK  122  A    between atoms: _303  and  _304
REMARK  123  A    between atoms: _303  and  _306
REMARK  124  A    between atoms: _306  and  _307
REMARK  125  A    between atoms: _307  and  _308
REMARK  126  A    between atoms: _308  and  _309
REMARK  127  A    between atoms: _318  and  _320
REMARK  128  A    between atoms: _320  and  _321
REMARK  129  A    between atoms: _320  and  _323
REMARK  130  A    between atoms: _323  and  _324
REMARK  131  A    between atoms: _334  and  _336
REMARK  132  A    between atoms: _336  and  _337
REMARK  133  A    between atoms: _336  and  _339
REMARK  134  A    between atoms: _339  and  _340
REMARK                            x       y       z     vdW  Elec       q    Type
REMARK                         _______ _______ _______ _____ _____    ______ ____
ROOT
ATOM      1  CA  GLU A   1      73.823  96.403  27.006  0.00  0.00    +0.134 C 
ENDROOT
BRANCH   1   2
ATOM      2  N   GLU A   1      74.784  97.444  26.694  0.00  0.00    -0.239 NA
ATOM      3  H   GLU A   1      75.797  97.245  26.821  0.00  0.00    +0.142 HD
ENDBRANCH   1   2
BRANCH   1   4
ATOM      4  C   GLU A   1      72.953  96.809  28.195  0.00  0.00    +0.224 C 
ATOM      5  O   GLU A   1      73.436  97.369  29.173  0.00  0.00    -0.287 OA
ENDBRANCH   1   4
BRANCH   1   6
ATOM      6  CB  GLU A   1      74.535  95.077  27.307  0.00  0.00    +0.037 C 
BRANCH   6   7
ATOM      7  CG  GLU A   1      73.648  94.033  27.991  0.00  0.00    +0.116 C 
BRANCH   7   8
ATOM      8  CD  GLU A   1      74.352  92.701  28.231  0.00  0.00    +0.365 C 
ATOM      9  OE2 GLU A   1      73.704  91.776  28.754  0.00  0.00    -0.246 OA
ATOM     10  OE1 GLU A   1      75.546  92.569  27.897  0.00  0.00    -0.246 OA
ENDBRANCH   7   8
ENDBRANCH   6   7
ENDBRANCH   1   6
TORSDOF 5
REMARK  Name = ../refined-set-2016/4ufj/4ufj_pocket.pdb
REMARK  134 active torsions:
REMARK  status: ('A' for Active; 'I' for Inactive)
REMARK    1  A    between atoms: _1  and  _3
REMARK    2  A    between atoms: _3  and  _4
REMARK    3  A    between atoms: _3  and  _6
REMARK    4  A    between atoms: _9  and  _11
REMARK    5  A    between atoms: _11  and  _12
REMARK    6  A    between atoms: _14  and  _16
REMARK    7  A    between atoms: _16  and  _17
REMARK    8  A    between atoms: _19  and  _21
REMARK    9  A    between atoms: _21  and  _22
REMARK   10  A    between atoms: _24  and  _26
REMARK   11  A    between atoms: _26  and  _27
REMARK   12  A    between atoms: _26  and  _29
REMARK   13  A    between atoms: _29  and  _30
REMARK   14  A    between atoms: _33  and  _35
REMARK   15  A    between atoms: _35  and  _36
REMARK   16  A    between atoms: _35  and  _38
REMARK   17  A    between atoms: _38  and  _39
REMARK   18  A    between atoms: _39  and  _40
REMARK   19  A    between atoms: _40  and  _41
REMARK   20  A    between atoms: _41  and  _42
REMARK   21  A    between atoms: _46  and  _48
REMARK   22  A    between atoms: _48  and  _49
REMARK   23  A    between atoms: _48  and  _51
REMARK   24  A    between atoms: _51  and  _52
REMARK   25  A    between atoms: _52  and  _53
REMARK   26  A    between atoms: _56  and  _58
REMARK   27  A    between atoms: _58  and  _59
REMARK   28  A    between atoms: _58  and  _61
REMARK   29  A    between atoms: _61  and  _62
REMARK   30  A    between atoms: _65  and  _67
REMARK   31  A    between atoms: _67  and  _68
REMARK   32  A    between atoms: _67  and  _70
REMARK   33  A    between atoms: _70  and  _71
REMARK   34  A    between atoms: _74  and  _76
REMARK   35  A    between atoms: _76  and  _77
REMARK   36  A    between atoms: _76  and  _79
REMARK   37  A    between atoms: _79  and  _80
REMARK   38  A    between atoms: _83  and  _85
REMARK   39  A    between atoms: _85  and  _86
REMARK   40  A    between atoms: _85  and  _88
REMARK   41  A    between atoms: _88  and  _89
REMARK   42  A    between atoms: _92  and  _94
REMARK   43  A    between atoms: _94  and  _95
REMARK   44  A    between atoms: _94  and  _97
REMARK   45  A    between atoms: _97  and  _98
REMARK   46  A    between atoms: _108  and  _110
REMARK   47  A    between atoms: _110  and  _111
REMARK   48  A    between atoms: _110  and  _113
REMARK   49  A    between atoms: _113  and  _114
REMARK   50  A    between atoms: _119  and  _121
REMARK   51  A    between atoms: _121  and  _122
REMARK   52  A    between atoms: _121  and  _124
REMARK   53  A    between atoms: _124  and  _125
REMARK   54  A    between atoms: _125  and  _126
REMARK   55  A    between atoms: _129  and  _131
REMARK   56  A    between atoms: _131  and  _132
REMARK   57  A    between atoms: _131  and  _134
REMARK   58  A    between atoms: _134  and  _135
REMARK   59  A    between atoms: _135  and  _136
REMARK   60  A    between atoms: _136  and  _137
REMARK   61  A    between atoms: _146  and  _148
REMARK   62  A    between atoms: _148  and  _149
REMARK   63  A    between atoms: _148  and  _151
REMARK   64  A    between atoms: _151  and  _152
REMARK   65  A    between atoms: _155  and  _157
REMARK   66  A    between atoms: _157  and  _158
REMARK   67  A    between atoms: _157  and  _160
REMARK   68  A    between atoms: _160  and  _161
REMARK   69  A    between atoms: _166  and  _168
REMARK   70  A    between atoms: _168  and  _169
REMARK   71  A    between atoms: _168  and  _171
REMARK   72  A    between atoms: _171  and  _172
REMARK   73  A    between atoms: _177  and  _178
REMARK   74  A    between atoms: _180  and  _182
REMARK   75  A    between atoms: _182  and  _183
REMARK   76  A    between atoms: _182  and  _185
REMARK   77  A    between atoms: _185  and  _186
REMARK   78  A    between atoms: _188  and  _190
REMARK   79  A    between atoms: _190  and  _191
REMARK   80  A    between atoms: _190  and  _193
REMARK   81  A    between atoms: _193  and  _194
REMARK   82  A    between atoms: _194  and  _195
REMARK   83  A    between atoms: _198  and  _200
REMARK   84  A    between atoms: _200  and  _201
REMARK   85  A    between atoms: _200  and  _203
REMARK   86  A    between atoms: _203  and  _204
REMARK   87  A    between atoms: _207  and  _209
REMARK   88  A    between atoms: _209  and  _210
REMARK   89  A    between atoms: _209  and  _212
REMARK   90  A    between atoms: _212  and  _213
REMARK   91  A    between atoms: _219  and  _221
REMARK   92  A    between atoms: _221  and  _222
REMARK   93  A    between atoms: _221  and  _224
REMARK   94  A    between atoms: _224  and  _225
REMARK   95  A    between atoms: _227  and  _229
REMARK   96  A    between atoms: _229  and  _230
REMARK   97  A    between atoms: _229  and  _232
REMARK   98  A    between atoms: _232  and  _233
REMARK   99  A    between atoms: _236  and  _238
REMARK  100  A    between atoms: _238  and  _239
REMARK  101  A    between atoms: _238  and  _241
REMARK  102  A    between atoms: _241  and  _242
REMARK  103  A    between atoms: _252  and  _254
REMARK  104  A    between atoms: _254  and  _255
REMARK  105  A    between atoms: _254  and  _257
REMARK  106  A    between atoms: _257  and  _258
REMARK  107  A    between atoms: _264  and  _265
REMARK  108  A    between atoms: _270  and  _272
REMARK  109  A    between atoms: _272  and  _273
REMARK  110  A    between atoms: _272  and  _275
REMARK  111  A    between atoms: _275  and  _276
REMARK  112  A    between atoms: _281  and  _282
REMARK  113  A    between atoms: _284  and  _286
REMARK  114  A    between atoms: _286  and  _287
REMARK  115  A    between atoms: _286  and  _289
REMARK  116  A    between atoms: _289  and  _290
REMARK  117  A    between atoms: _292  and  _294
REMARK  118  A    between atoms: _294  and  _295
REMARK  119  A    between atoms: _294  and  _297
REMARK  120  A    between atoms: _297  and  _298
REMARK  121  A    between atoms: _301  and  _303
REMARK  122  A    between atoms: _303  and  _304
REMARK  123  A    between atoms: _303  and  _306
REMARK  124  A    between atoms: _306  and  _307
REMARK  125  A    between atoms: _307  and  _308
REMARK  126  A    between atoms: _308  and  _309
REMARK  127  A    between atoms: _318  and  _320
REMARK  128  A    between atoms: _320  and  _321
REMARK  129  A    between atoms: _320  and  _323
REMARK  130  A    between atoms: _323  and  _324
REMARK  131  A    between atoms: _334  and  _336
REMARK  132  A    between atoms: _336  and  _337
REMARK  133  A    between atoms: _336  and  _339
REMARK  134  A    between atoms: _339  and  _340
REMARK                            x       y       z     vdW  Elec       q    Type
REMARK                         _______ _______ _______ _____ _____    ______ ____
ROOT
ATOM      1  CA  THR A   2      79.162  86.494  25.298  0.00  0.00    +0.176 C 
ENDROOT
BRANCH   1   3
ATOM      2  C   THR A   1      76.979  87.638  25.882  0.00  0.00    +0.241 C 
ATOM      3  N   THR A   2      78.028  86.866  26.182  0.00  0.00    -0.295 N 
ATOM      4  H   THR A   2      78.053  86.481  27.148  0.00  0.00    +0.150 HD
ATOM      5  O   THR A   1      76.969  88.494  25.005  0.00  0.00    -0.274 OA
BRANCH   2   6
ATOM      6  CA  THR A   1      75.730  87.443  26.742  0.00  0.00    +0.172 C 
BRANCH   6   7
ATOM      7  N   THR A   1      75.932  86.750  28.010  0.00  0.00    -0.236 NA
ATOM      8  H   THR A   1      76.720  87.011  28.636  0.00  0.00    +0.142 HD
ENDBRANCH   6   7
BRANCH   6   9
ATOM      9  CB  THR A   1      75.070  88.807  26.985  0.00  0.00    +0.135 C 
ATOM     10  CG2 THR A   1      73.662  88.604  27.512  0.00  0.00    +0.034 C 
BRANCH   9  11
ATOM     11  OG1 THR A   1      75.822  89.541  27.954  0.00  0.00    -0.383 OA
ATOM     12  HG1 THR A   1      75.392  90.420  28.107  0.00  0.00    +0.210 HD
ENDBRANCH   9  11
ENDBRANCH   6   9
ENDBRANCH   2   6
ENDBRANCH   1   3
BRANCH   1  13
ATOM     13  C   THR A   2      80.466  86.320  26.083  0.00  0.00    +0.243 C 
ATOM     14  N   ASP A   3      80.776  87.236  26.999  0.00  0.00    -0.297 N 
ATOM     15  H   ASP A   3      80.165  88.069  27.122  0.00  0.00    +0.150 HD
ATOM     16  O   THR A   2      81.177  85.346  25.866  0.00  0.00    -0.273 OA
BRANCH  14  17
ATOM     17  CA  ASP A   3      81.971  87.081  27.835  0.00  0.00    +0.148 C 
BRANCH  17  18
ATOM     18  C   ASP A   3      81.652  87.173  29.328  0.00  0.00    +0.227 C 
ATOM     19  O   ASP A   3      82.527  87.440  30.157  0.00  0.00    -0.286 OA
ENDBRANCH  17  18
BRANCH  17  20
ATOM     20  CB  ASP A   3      83.026  88.120  27.454  0.00  0.00    +0.142 C 
BRANCH  20  21
ATOM     21  CG  ASP A   3      83.484  87.972  26.014  0.00  0.00    +0.367 C 
ATOM     22  OD2 ASP A   3      84.272  87.045  25.749  0.00  0.00    -0.246 OA
ATOM     23  OD1 ASP A   3      83.048  88.766  25.156  0.00  0.00    -0.246 OA
ENDBRANCH  20  21
ENDBRANCH  17  20
ENDBRANCH  14  17
ENDBRANCH   1  13
BRANCH   1  24
ATOM     24  CB  THR A   2      79.428  87.483  24.123  0.00  0.00    +0.137 C 
ATOM     25  CG2 THR A   2      80.726  87.123  23.397  0.00  0.00    +0.034 C 
BRANCH  24  26
ATOM     26  OG1 THR A   2      78.348  87.405  23.181  0.00  0.00    -0.382 OA
ATOM     27  HG1 THR A   2      78.517  88.033  22.435  0.00  0.00    +0.210 HD
ENDBRANCH  24  26
ENDBRANCH   1  24
TORSDOF 12
REMARK  Name = ../refined-set-2016/4ufj/4ufj_pocket.pdb
REMARK  134 active torsions:
REMARK  status: ('A' for Active; 'I' for Inactive)
REMARK    1  A    between atoms: _1  and  _3
REMARK    2  A    between atoms: _3  and  _4
REMARK    3  A    between atoms: _3  and  _6
REMARK    4  A    between atoms: _9  and  _11
REMARK    5  A    between atoms: _11  and  _12
REMARK    6  A    between atoms: _14  and  _16
REMARK    7  A    between atoms: _16  and  _17
REMARK    8  A    between atoms: _19  and  _21
REMARK    9  A    between atoms: _21  and  _22
REMARK   10  A    between atoms: _24  and  _26
REMARK   11  A    between atoms: _26  and  _27
REMARK   12  A    between atoms: _26  and  _29
REMARK   13  A    between atoms: _29  and  _30
REMARK   14  A    between atoms: _33  and  _35
REMARK   15  A    between atoms: _35  and  _36
REMARK   16  A    between atoms: _35  and  _38
REMARK   17  A    between atoms: _38  and  _39
REMARK   18  A    between atoms: _39  and  _40
REMARK   19  A    between atoms: _40  and  _41
REMARK   20  A    between atoms: _41  and  _42
REMARK   21  A    between atoms: _46  and  _48
REMARK   22  A    between atoms: _48  and  _49
REMARK   23  A    between atoms: _48  and  _51
REMARK   24  A    between atoms: _51  and  _52
REMARK   25  A    between atoms: _52  and  _53
REMARK   26  A    between atoms: _56  and  _58
REMARK   27  A    between atoms: _58  and  _59
REMARK   28  A    between atoms: _58  and  _61
REMARK   29  A    between atoms: _61  and  _62
REMARK   30  A    between atoms: _65  and  _67
REMARK   31  A    between atoms: _67  and  _68
REMARK   32  A    between atoms: _67  and  _70
REMARK   33  A    between atoms: _70  and  _71
REMARK   34  A    between atoms: _74  and  _76
REMARK   35  A    between atoms: _76  and  _77
REMARK   36  A    between atoms: _76  and  _79
REMARK   37  A    between atoms: _79  and  _80
REMARK   38  A    between atoms: _83  and  _85
REMARK   39  A    between atoms: _85  and  _86
REMARK   40  A    between atoms: _85  and  _88
REMARK   41  A    between atoms: _88  and  _89
REMARK   42  A    between atoms: _92  and  _94
REMARK   43  A    between atoms: _94  and  _95
REMARK   44  A    between atoms: _94  and  _97
REMARK   45  A    between atoms: _97  and  _98
REMARK   46  A    between atoms: _108  and  _110
REMARK   47  A    between atoms: _110  and  _111
REMARK   48  A    between atoms: _110  and  _113
REMARK   49  A    between atoms: _113  and  _114
REMARK   50  A    between atoms: _119  and  _121
REMARK   51  A    between atoms: _121  and  _122
REMARK   52  A    between atoms: _121  and  _124
REMARK   53  A    between atoms: _124  and  _125
REMARK   54  A    between atoms: _125  and  _126
REMARK   55  A    between atoms: _129  and  _131
REMARK   56  A    between atoms: _131  and  _132
REMARK   57  A    between atoms: _131  and  _134
REMARK   58  A    between atoms: _134  and  _135
REMARK   59  A    between atoms: _135  and  _136
REMARK   60  A    between atoms: _136  and  _137
REMARK   61  A    between atoms: _146  and  _148
REMARK   62  A    between atoms: _148  and  _149
REMARK   63  A    between atoms: _148  and  _151
REMARK   64  A    between atoms: _151  and  _152
REMARK   65  A    between atoms: _155  and  _157
REMARK   66  A    between atoms: _157  and  _158
REMARK   67  A    between atoms: _157  and  _160
REMARK   68  A    between atoms: _160  and  _161
REMARK   69  A    between atoms: _166  and  _168
REMARK   70  A    between atoms: _168  and  _169
REMARK   71  A    between atoms: _168  and  _171
REMARK   72  A    between atoms: _171  and  _172
REMARK   73  A    between atoms: _177  and  _178
REMARK   74  A    between atoms: _180  and  _182
REMARK   75  A    between atoms: _182  and  _183
REMARK   76  A    between atoms: _182  and  _185
REMARK   77  A    between atoms: _185  and  _186
REMARK   78  A    between atoms: _188  and  _190
REMARK   79  A    between atoms: _190  and  _191
REMARK   80  A    between atoms: _190  and  _193
REMARK   81  A    between atoms: _193  and  _194
REMARK   82  A    between atoms: _194  and  _195
REMARK   83  A    between atoms: _198  and  _200
REMARK   84  A    between atoms: _200  and  _201
REMARK   85  A    between atoms: _200  and  _203
REMARK   86  A    between atoms: _203  and  _204
REMARK   87  A    between atoms: _207  and  _209
REMARK   88  A    between atoms: _209  and  _210
REMARK   89  A    between atoms: _209  and  _212
REMARK   90  A    between atoms: _212  and  _213
REMARK   91  A    between atoms: _219  and  _221
REMARK   92  A    between atoms: _221  and  _222
REMARK   93  A    between atoms: _221  and  _224
REMARK   94  A    between atoms: _224  and  _225
REMARK   95  A    between atoms: _227  and  _229
REMARK   96  A    between atoms: _229  and  _230
REMARK   97  A    between atoms: _229  and  _232
REMARK   98  A    between atoms: _232  and  _233
REMARK   99  A    between atoms: _236  and  _238
REMARK  100  A    between atoms: _238  and  _239
REMARK  101  A    between atoms: _238  and  _241
REMARK  102  A    between atoms: _241  and  _242
REMARK  103  A    between atoms: _252  and  _254
REMARK  104  A    between atoms: _254  and  _255
REMARK  105  A    between atoms: _254  and  _257
REMARK  106  A    between atoms: _257  and  _258
REMARK  107  A    between atoms: _264  and  _265
REMARK  108  A    between atoms: _270  and  _272
REMARK  109  A    between atoms: _272  and  _273
REMARK  110  A    between atoms: _272  and  _275
REMARK  111  A    between atoms: _275  and  _276
REMARK  112  A    between atoms: _281  and  _282
REMARK  113  A    between atoms: _284  and  _286
REMARK  114  A    between atoms: _286  and  _287
REMARK  115  A    between atoms: _286  and  _289
REMARK  116  A    between atoms: _289  and  _290
REMARK  117  A    between atoms: _292  and  _294
REMARK  118  A    between atoms: _294  and  _295
REMARK  119  A    between atoms: _294  and  _297
REMARK  120  A    between atoms: _297  and  _298
REMARK  121  A    between atoms: _301  and  _303
REMARK  122  A    between atoms: _303  and  _304
REMARK  123  A    between atoms: _303  and  _306
REMARK  124  A    between atoms: _306  and  _307
REMARK  125  A    between atoms: _307  and  _308
REMARK  126  A    between atoms: _308  and  _309
REMARK  127  A    between atoms: _318  and  _320
REMARK  128  A    between atoms: _320  and  _321
REMARK  129  A    between atoms: _320  and  _323
REMARK  130  A    between atoms: _323  and  _324
REMARK  131  A    between atoms: _334  and  _336
REMARK  132  A    between atoms: _336  and  _337
REMARK  133  A    between atoms: _336  and  _339
REMARK  134  A    between atoms: _339  and  _340
REMARK                            x       y       z     vdW  Elec       q    Type
REMARK                         _______ _______ _______ _____ _____    ______ ____
ROOT
ATOM      1  CA  LEU A   1      69.833  97.422  24.001  0.00  0.00    +0.133 C 
ENDROOT
BRANCH   1   2
ATOM      2  N   LEU A   1      70.382  98.586  24.687  0.00  0.00    -0.239 NA
ATOM      3  H   LEU A   1      71.104  98.440  25.421  0.00  0.00    +0.142 HD
ENDBRANCH   1   2
BRANCH   1   4
ATOM      4  C   LEU A   1      69.937  96.177  24.873  0.00  0.00    +0.224 C 
ATOM      5  O   LEU A   1      71.011  95.876  25.381  0.00  0.00    -0.287 OA
ENDBRANCH   1   4
BRANCH   1   6
ATOM      6  CB  LEU A   1      70.565  97.193  22.674  0.00  0.00    +0.025 C 
BRANCH   6   7
ATOM      7  CG  LEU A   1      70.270  95.930  21.855  0.00  0.00    +0.002 C 
ATOM      8  CD2 LEU A   1      68.869  95.948  21.235  0.00  0.00    +0.000 C 
ATOM      9  CD1 LEU A   1      71.321  95.758  20.764  0.00  0.00    +0.000 C 
ENDBRANCH   6   7
ENDBRANCH   1   6
TORSDOF 4
REMARK  Name = ../refined-set-2016/4ufj/4ufj_pocket.pdb
REMARK  134 active torsions:
REMARK  status: ('A' for Active; 'I' for Inactive)
REMARK    1  A    between atoms: _1  and  _3
REMARK    2  A    between atoms: _3  and  _4
REMARK    3  A    between atoms: _3  and  _6
REMARK    4  A    between atoms: _9  and  _11
REMARK    5  A    between atoms: _11  and  _12
REMARK    6  A    between atoms: _14  and  _16
REMARK    7  A    between atoms: _16  and  _17
REMARK    8  A    between atoms: _19  and  _21
REMARK    9  A    between atoms: _21  and  _22
REMARK   10  A    between atoms: _24  and  _26
REMARK   11  A    between atoms: _26  and  _27
REMARK   12  A    between atoms: _26  and  _29
REMARK   13  A    between atoms: _29  and  _30
REMARK   14  A    between atoms: _33  and  _35
REMARK   15  A    between atoms: _35  and  _36
REMARK   16  A    between atoms: _35  and  _38
REMARK   17  A    between atoms: _38  and  _39
REMARK   18  A    between atoms: _39  and  _40
REMARK   19  A    between atoms: _40  and  _41
REMARK   20  A    between atoms: _41  and  _42
REMARK   21  A    between atoms: _46  and  _48
REMARK   22  A    between atoms: _48  and  _49
REMARK   23  A    between atoms: _48  and  _51
REMARK   24  A    between atoms: _51  and  _52
REMARK   25  A    between atoms: _52  and  _53
REMARK   26  A    between atoms: _56  and  _58
REMARK   27  A    between atoms: _58  and  _59
REMARK   28  A    between atoms: _58  and  _61
REMARK   29  A    between atoms: _61  and  _62
REMARK   30  A    between atoms: _65  and  _67
REMARK   31  A    between atoms: _67  and  _68
REMARK   32  A    between atoms: _67  and  _70
REMARK   33  A    between atoms: _70  and  _71
REMARK   34  A    between atoms: _74  and  _76
REMARK   35  A    between atoms: _76  and  _77
REMARK   36  A    between atoms: _76  and  _79
REMARK   37  A    between atoms: _79  and  _80
REMARK   38  A    between atoms: _83  and  _85
REMARK   39  A    between atoms: _85  and  _86
REMARK   40  A    between atoms: _85  and  _88
REMARK   41  A    between atoms: _88  and  _89
REMARK   42  A    between atoms: _92  and  _94
REMARK   43  A    between atoms: _94  and  _95
REMARK   44  A    between atoms: _94  and  _97
REMARK   45  A    between atoms: _97  and  _98
REMARK   46  A    between atoms: _108  and  _110
REMARK   47  A    between atoms: _110  and  _111
REMARK   48  A    between atoms: _110  and  _113
REMARK   49  A    between atoms: _113  and  _114
REMARK   50  A    between atoms: _119  and  _121
REMARK   51  A    between atoms: _121  and  _122
REMARK   52  A    between atoms: _121  and  _124
REMARK   53  A    between atoms: _124  and  _125
REMARK   54  A    between atoms: _125  and  _126
REMARK   55  A    between atoms: _129  and  _131
REMARK   56  A    between atoms: _131  and  _132
REMARK   57  A    between atoms: _131  and  _134
REMARK   58  A    between atoms: _134  and  _135
REMARK   59  A    between atoms: _135  and  _136
REMARK   60  A    between atoms: _136  and  _137
REMARK   61  A    between atoms: _146  and  _148
REMARK   62  A    between atoms: _148  and  _149
REMARK   63  A    between atoms: _148  and  _151
REMARK   64  A    between atoms: _151  and  _152
REMARK   65  A    between atoms: _155  and  _157
REMARK   66  A    between atoms: _157  and  _158
REMARK   67  A    between atoms: _157  and  _160
REMARK   68  A    between atoms: _160  and  _161
REMARK   69  A    between atoms: _166  and  _168
REMARK   70  A    between atoms: _168  and  _169
REMARK   71  A    between atoms: _168  and  _171
REMARK   72  A    between atoms: _171  and  _172
REMARK   73  A    between atoms: _177  and  _178
REMARK   74  A    between atoms: _180  and  _182
REMARK   75  A    between atoms: _182  and  _183
REMARK   76  A    between atoms: _182  and  _185
REMARK   77  A    between atoms: _185  and  _186
REMARK   78  A    between atoms: _188  and  _190
REMARK   79  A    between atoms: _190  and  _191
REMARK   80  A    between atoms: _190  and  _193
REMARK   81  A    between atoms: _193  and  _194
REMARK   82  A    between atoms: _194  and  _195
REMARK   83  A    between atoms: _198  and  _200
REMARK   84  A    between atoms: _200  and  _201
REMARK   85  A    between atoms: _200  and  _203
REMARK   86  A    between atoms: _203  and  _204
REMARK   87  A    between atoms: _207  and  _209
REMARK   88  A    between atoms: _209  and  _210
REMARK   89  A    between atoms: _209  and  _212
REMARK   90  A    between atoms: _212  and  _213
REMARK   91  A    between atoms: _219  and  _221
REMARK   92  A    between atoms: _221  and  _222
REMARK   93  A    between atoms: _221  and  _224
REMARK   94  A    between atoms: _224  and  _225
REMARK   95  A    between atoms: _227  and  _229
REMARK   96  A    between atoms: _229  and  _230
REMARK   97  A    between atoms: _229  and  _232
REMARK   98  A    between atoms: _232  and  _233
REMARK   99  A    between atoms: _236  and  _238
REMARK  100  A    between atoms: _238  and  _239
REMARK  101  A    between atoms: _238  and  _241
REMARK  102  A    between atoms: _241  and  _242
REMARK  103  A    between atoms: _252  and  _254
REMARK  104  A    between atoms: _254  and  _255
REMARK  105  A    between atoms: _254  and  _257
REMARK  106  A    between atoms: _257  and  _258
REMARK  107  A    between atoms: _264  and  _265
REMARK  108  A    between atoms: _270  and  _272
REMARK  109  A    between atoms: _272  and  _273
REMARK  110  A    between atoms: _272  and  _275
REMARK  111  A    between atoms: _275  and  _276
REMARK  112  A    between atoms: _281  and  _282
REMARK  113  A    between atoms: _284  and  _286
REMARK  114  A    between atoms: _286  and  _287
REMARK  115  A    between atoms: _286  and  _289
REMARK  116  A    between atoms: _289  and  _290
REMARK  117  A    between atoms: _292  and  _294
REMARK  118  A    between atoms: _294  and  _295
REMARK  119  A    between atoms: _294  and  _297
REMARK  120  A    between atoms: _297  and  _298
REMARK  121  A    between atoms: _301  and  _303
REMARK  122  A    between atoms: _303  and  _304
REMARK  123  A    between atoms: _303  and  _306
REMARK  124  A    between atoms: _306  and  _307
REMARK  125  A    between atoms: _307  and  _308
REMARK  126  A    between atoms: _308  and  _309
REMARK  127  A    between atoms: _318  and  _320
REMARK  128  A    between atoms: _320  and  _321
REMARK  129  A    between atoms: _320  and  _323
REMARK  130  A    between atoms: _323  and  _324
REMARK  131  A    between atoms: _334  and  _336
REMARK  132  A    between atoms: _336  and  _337
REMARK  133  A    between atoms: _336  and  _339
REMARK  134  A    between atoms: _339  and  _340
REMARK                            x       y       z     vdW  Elec       q    Type
REMARK                         _______ _______ _______ _____ _____    ______ ____
ROOT
ATOM      1  CG  TRP A   1      73.040  90.919  24.302  0.00  0.00    -0.002 A 
ATOM      2  CD2 TRP A   1      73.431  92.252  23.943  0.00  0.00    +0.013 A 
ATOM      3  CE3 TRP A   1      72.991  93.527  24.316  0.00  0.00    +0.001 A 
ATOM      4  CZ3 TRP A   1      73.606  94.628  23.761  0.00  0.00    +0.000 A 
ATOM      5  CH2 TRP A   1      74.647  94.484  22.828  0.00  0.00    +0.001 A 
ATOM      6  CZ2 TRP A   1      75.101  93.252  22.450  0.00  0.00    +0.017 A 
ATOM      7  CE2 TRP A   1      74.483  92.140  23.014  0.00  0.00    +0.056 A 
ATOM      8  NE1 TRP A   1      74.729  90.807  22.829  0.00  0.00    -0.352 N 
ATOM      9  HE1 TRP A   1      75.455  90.408  22.201  0.00  0.00    +0.166 HD
ATOM     10  CD1 TRP A   1      73.864  90.083  23.605  0.00  0.00    +0.068 A 
ENDROOT
BRANCH   1  11
ATOM     11  CB  TRP A   1      71.993  90.514  25.302  0.00  0.00    +0.053 C 
BRANCH  11  12
ATOM     12  CA  TRP A   1      70.520  90.828  25.041  0.00  0.00    +0.137 C 
BRANCH  12  13
ATOM     13  N   TRP A   1      70.141  92.126  25.599  0.00  0.00    -0.239 NA
ATOM     14  H   TRP A   1      70.483  92.373  26.550  0.00  0.00    +0.142 HD
ENDBRANCH  12  13
BRANCH  12  15
ATOM     15  C   TRP A   1      69.674  89.736  25.694  0.00  0.00    +0.224 C 
ATOM     16  O   TRP A   1      69.133  88.856  25.028  0.00  0.00    -0.287 OA
ENDBRANCH  12  15
ENDBRANCH  11  12
ENDBRANCH   1  11
TORSDOF 4
REMARK  Name = ../refined-set-2016/4ufj/4ufj_pocket.pdb
REMARK  134 active torsions:
REMARK  status: ('A' for Active; 'I' for Inactive)
REMARK    1  A    between atoms: _1  and  _3
REMARK    2  A    between atoms: _3  and  _4
REMARK    3  A    between atoms: _3  and  _6
REMARK    4  A    between atoms: _9  and  _11
REMARK    5  A    between atoms: _11  and  _12
REMARK    6  A    between atoms: _14  and  _16
REMARK    7  A    between atoms: _16  and  _17
REMARK    8  A    between atoms: _19  and  _21
REMARK    9  A    between atoms: _21  and  _22
REMARK   10  A    between atoms: _24  and  _26
REMARK   11  A    between atoms: _26  and  _27
REMARK   12  A    between atoms: _26  and  _29
REMARK   13  A    between atoms: _29  and  _30
REMARK   14  A    between atoms: _33  and  _35
REMARK   15  A    between atoms: _35  and  _36
REMARK   16  A    between atoms: _35  and  _38
REMARK   17  A    between atoms: _38  and  _39
REMARK   18  A    between atoms: _39  and  _40
REMARK   19  A    between atoms: _40  and  _41
REMARK   20  A    between atoms: _41  and  _42
REMARK   21  A    between atoms: _46  and  _48
REMARK   22  A    between atoms: _48  and  _49
REMARK   23  A    between atoms: _48  and  _51
REMARK   24  A    between atoms: _51  and  _52
REMARK   25  A    between atoms: _52  and  _53
REMARK   26  A    between atoms: _56  and  _58
REMARK   27  A    between atoms: _58  and  _59
REMARK   28  A    between atoms: _58  and  _61
REMARK   29  A    between atoms: _61  and  _62
REMARK   30  A    between atoms: _65  and  _67
REMARK   31  A    between atoms: _67  and  _68
REMARK   32  A    between atoms: _67  and  _70
REMARK   33  A    between atoms: _70  and  _71
REMARK   34  A    between atoms: _74  and  _76
REMARK   35  A    between atoms: _76  and  _77
REMARK   36  A    between atoms: _76  and  _79
REMARK   37  A    between atoms: _79  and  _80
REMARK   38  A    between atoms: _83  and  _85
REMARK   39  A    between atoms: _85  and  _86
REMARK   40  A    between atoms: _85  and  _88
REMARK   41  A    between atoms: _88  and  _89
REMARK   42  A    between atoms: _92  and  _94
REMARK   43  A    between atoms: _94  and  _95
REMARK   44  A    between atoms: _94  and  _97
REMARK   45  A    between atoms: _97  and  _98
REMARK   46  A    between atoms: _108  and  _110
REMARK   47  A    between atoms: _110  and  _111
REMARK   48  A    between atoms: _110  and  _113
REMARK   49  A    between atoms: _113  and  _114
REMARK   50  A    between atoms: _119  and  _121
REMARK   51  A    between atoms: _121  and  _122
REMARK   52  A    between atoms: _121  and  _124
REMARK   53  A    between atoms: _124  and  _125
REMARK   54  A    between atoms: _125  and  _126
REMARK   55  A    between atoms: _129  and  _131
REMARK   56  A    between atoms: _131  and  _132
REMARK   57  A    between atoms: _131  and  _134
REMARK   58  A    between atoms: _134  and  _135
REMARK   59  A    between atoms: _135  and  _136
REMARK   60  A    between atoms: _136  and  _137
REMARK   61  A    between atoms: _146  and  _148
REMARK   62  A    between atoms: _148  and  _149
REMARK   63  A    between atoms: _148  and  _151
REMARK   64  A    between atoms: _151  and  _152
REMARK   65  A    between atoms: _155  and  _157
REMARK   66  A    between atoms: _157  and  _158
REMARK   67  A    between atoms: _157  and  _160
REMARK   68  A    between atoms: _160  and  _161
REMARK   69  A    between atoms: _166  and  _168
REMARK   70  A    between atoms: _168  and  _169
REMARK   71  A    between atoms: _168  and  _171
REMARK   72  A    between atoms: _171  and  _172
REMARK   73  A    between atoms: _177  and  _178
REMARK   74  A    between atoms: _180  and  _182
REMARK   75  A    between atoms: _182  and  _183
REMARK   76  A    between atoms: _182  and  _185
REMARK   77  A    between atoms: _185  and  _186
REMARK   78  A    between atoms: _188  and  _190
REMARK   79  A    between atoms: _190  and  _191
REMARK   80  A    between atoms: _190  and  _193
REMARK   81  A    between atoms: _193  and  _194
REMARK   82  A    between atoms: _194  and  _195
REMARK   83  A    between atoms: _198  and  _200
REMARK   84  A    between atoms: _200  and  _201
REMARK   85  A    between atoms: _200  and  _203
REMARK   86  A    between atoms: _203  and  _204
REMARK   87  A    between atoms: _207  and  _209
REMARK   88  A    between atoms: _209  and  _210
REMARK   89  A    between atoms: _209  and  _212
REMARK   90  A    between atoms: _212  and  _213
REMARK   91  A    between atoms: _219  and  _221
REMARK   92  A    between atoms: _221  and  _222
REMARK   93  A    between atoms: _221  and  _224
REMARK   94  A    between atoms: _224  and  _225
REMARK   95  A    between atoms: _227  and  _229
REMARK   96  A    between atoms: _229  and  _230
REMARK   97  A    between atoms: _229  and  _232
REMARK   98  A    between atoms: _232  and  _233
REMARK   99  A    between atoms: _236  and  _238
REMARK  100  A    between atoms: _238  and  _239
REMARK  101  A    between atoms: _238  and  _241
REMARK  102  A    between atoms: _241  and  _242
REMARK  103  A    between atoms: _252  and  _254
REMARK  104  A    between atoms: _254  and  _255
REMARK  105  A    between atoms: _254  and  _257
REMARK  106  A    between atoms: _257  and  _258
REMARK  107  A    between atoms: _264  and  _265
REMARK  108  A    between atoms: _270  and  _272
REMARK  109  A    between atoms: _272  and  _273
REMARK  110  A    between atoms: _272  and  _275
REMARK  111  A    between atoms: _275  and  _276
REMARK  112  A    between atoms: _281  and  _282
REMARK  113  A    between atoms: _284  and  _286
REMARK  114  A    between atoms: _286  and  _287
REMARK  115  A    between atoms: _286  and  _289
REMARK  116  A    between atoms: _289  and  _290
REMARK  117  A    between atoms: _292  and  _294
REMARK  118  A    between atoms: _294  and  _295
REMARK  119  A    between atoms: _294  and  _297
REMARK  120  A    between atoms: _297  and  _298
REMARK  121  A    between atoms: _301  and  _303
REMARK  122  A    between atoms: _303  and  _304
REMARK  123  A    between atoms: _303  and  _306
REMARK  124  A    between atoms: _306  and  _307
REMARK  125  A    between atoms: _307  and  _308
REMARK  126  A    between atoms: _308  and  _309
REMARK  127  A    between atoms: _318  and  _320
REMARK  128  A    between atoms: _320  and  _321
REMARK  129  A    between atoms: _320  and  _323
REMARK  130  A    between atoms: _323  and  _324
REMARK  131  A    between atoms: _334  and  _336
REMARK  132  A    between atoms: _336  and  _337
REMARK  133  A    between atoms: _336  and  _339
REMARK  134  A    between atoms: _339  and  _340
REMARK                            x       y       z     vdW  Elec       q    Type
REMARK                         _______ _______ _______ _____ _____    ______ ____
ROOT
ATOM      1  CA  GLU A   2      70.137  89.460  17.154  0.00  0.00    +0.149 C 
ENDROOT
BRANCH   1   4
ATOM      2  C   ASN A   1      69.965  90.516  19.380  0.00  0.00    +0.239 C 
ATOM      3  O   ASN A   1      70.013  89.446  19.979  0.00  0.00    -0.274 OA
ATOM      4  N   GLU A   2      69.986  90.617  18.050  0.00  0.00    -0.297 N 
ATOM      5  H   GLU A   2      69.891  91.561  17.625  0.00  0.00    +0.150 HD
BRANCH   2   6
ATOM      6  CA  ASN A   1      69.880  91.832  20.149  0.00  0.00    +0.154 C 
BRANCH   6   7
ATOM      7  N   ASN A   1      68.650  92.048  20.912  0.00  0.00    -0.238 NA
ATOM      8  H   ASN A   1      68.726  92.370  21.898  0.00  0.00    +0.142 HD
ENDBRANCH   6   7
BRANCH   6   9
ATOM      9  CB  ASN A   1      71.099  91.926  21.070  0.00  0.00    +0.111 C 
BRANCH   9  10
ATOM     10  CG  ASN A   1      72.408  91.911  20.292  0.00  0.00    +0.221 C 
ATOM     11  ND2 ASN A   1      73.161  90.822  20.394  0.00  0.00    -0.329 N 
ATOM     12 HD21 ASN A   1      72.861  90.038  21.009  0.00  0.00    +0.145 HD
ATOM     13 HD22 ASN A   1      74.050  90.753  19.859  0.00  0.00    +0.145 HD
ATOM     14  OD1 ASN A   1      72.714  92.862  19.583  0.00  0.00    -0.275 OA
ENDBRANCH   9  10
ENDBRANCH   6   9
ENDBRANCH   2   6
ENDBRANCH   1   4
BRANCH   1  15
ATOM     15  C   GLU A   2      69.099  88.371  17.409  0.00  0.00    +0.241 C 
ATOM     16  N   ARG A   3      67.900  88.792  17.792  0.00  0.00    -0.298 N 
ATOM     17  H   ARG A   3      67.732  89.816  17.866  0.00  0.00    +0.150 HD
ATOM     18  O   GLU A   2      69.373  87.189  17.252  0.00  0.00    -0.273 OA
BRANCH  16  19
ATOM     19  CA  ARG A   3      66.808  87.881  18.113  0.00  0.00    +0.137 C 
BRANCH  19  20
ATOM     20  C   ARG A   3      65.538  88.410  17.449  0.00  0.00    +0.227 C 
ATOM     21  O   ARG A   3      65.499  89.569  17.045  0.00  0.00    -0.286 OA
ENDBRANCH  19  20
BRANCH  19  22
ATOM     22  CB  ARG A   3      66.639  87.754  19.637  0.00  0.00    +0.031 C 
BRANCH  22  23
ATOM     23  CG  ARG A   3      67.771  87.008  20.354  0.00  0.00    +0.045 C 
BRANCH  23  24
ATOM     24  CD  ARG A   3      67.855  85.543  19.935  0.00  0.00    +0.174 C 
BRANCH  24  25
ATOM     25  NE  ARG A   3      68.974  84.847  20.571  0.00  0.00    -0.265 N 
ATOM     26  HE  ARG A   3      68.769  84.280  21.418  0.00  0.00    +0.259 HD
ATOM     27  CZ  ARG A   3      70.235  84.885  20.146  0.00  0.00    +0.342 C 
ATOM     28  NH2 ARG A   3      71.172  84.213  20.802  0.00  0.00    -0.292 N 
ATOM     29 HH21 ARG A   3      70.920  83.659  21.645  0.00  0.00    +0.255 HD
ATOM     30 HH22 ARG A   3      72.158  84.240  20.473  0.00  0.00    +0.255 HD
ATOM     31  NH1 ARG A   3      70.564  85.578  19.064  0.00  0.00    -0.292 N 
ATOM     32 HH11 ARG A   3      71.552  85.600  18.741  0.00  0.00    +0.255 HD
ATOM     33 HH12 ARG A   3      69.834  86.099  18.538  0.00  0.00    +0.255 HD
ENDBRANCH  24  25
ENDBRANCH  23  24
ENDBRANCH  22  23
ENDBRANCH  19  22
ENDBRANCH  16  19
ENDBRANCH   1  15
BRANCH   1  34
ATOM     34  CB  GLU A   2      71.562  88.891  17.272  0.00  0.00    +0.041 C 
BRANCH  34  35
ATOM     35  CG  GLU A   2      72.627  89.930  16.901  0.00  0.00    +0.116 C 
BRANCH  35  36
ATOM     36  CD  GLU A   2      74.057  89.413  16.899  0.00  0.00    +0.365 C 
ATOM     37  OE2 GLU A   2      74.306  88.270  17.342  0.00  0.00    -0.246 OA
ATOM     38  OE1 GLU A   2      74.941  90.172  16.446  0.00  0.00    -0.246 OA
ENDBRANCH  35  36
ENDBRANCH  34  35
ENDBRANCH   1  34
TORSDOF 15
REMARK  Name = ../refined-set-2016/4ufj/4ufj_pocket.pdb
REMARK  134 active torsions:
REMARK  status: ('A' for Active; 'I' for Inactive)
REMARK    1  A    between atoms: _1  and  _3
REMARK    2  A    between atoms: _3  and  _4
REMARK    3  A    between atoms: _3  and  _6
REMARK    4  A    between atoms: _9  and  _11
REMARK    5  A    between atoms: _11  and  _12
REMARK    6  A    between atoms: _14  and  _16
REMARK    7  A    between atoms: _16  and  _17
REMARK    8  A    between atoms: _19  and  _21
REMARK    9  A    between atoms: _21  and  _22
REMARK   10  A    between atoms: _24  and  _26
REMARK   11  A    between atoms: _26  and  _27
REMARK   12  A    between atoms: _26  and  _29
REMARK   13  A    between atoms: _29  and  _30
REMARK   14  A    between atoms: _33  and  _35
REMARK   15  A    between atoms: _35  and  _36
REMARK   16  A    between atoms: _35  and  _38
REMARK   17  A    between atoms: _38  and  _39
REMARK   18  A    between atoms: _39  and  _40
REMARK   19  A    between atoms: _40  and  _41
REMARK   20  A    between atoms: _41  and  _42
REMARK   21  A    between atoms: _46  and  _48
REMARK   22  A    between atoms: _48  and  _49
REMARK   23  A    between atoms: _48  and  _51
REMARK   24  A    between atoms: _51  and  _52
REMARK   25  A    between atoms: _52  and  _53
REMARK   26  A    between atoms: _56  and  _58
REMARK   27  A    between atoms: _58  and  _59
REMARK   28  A    between atoms: _58  and  _61
REMARK   29  A    between atoms: _61  and  _62
REMARK   30  A    between atoms: _65  and  _67
REMARK   31  A    between atoms: _67  and  _68
REMARK   32  A    between atoms: _67  and  _70
REMARK   33  A    between atoms: _70  and  _71
REMARK   34  A    between atoms: _74  and  _76
REMARK   35  A    between atoms: _76  and  _77
REMARK   36  A    between atoms: _76  and  _79
REMARK   37  A    between atoms: _79  and  _80
REMARK   38  A    between atoms: _83  and  _85
REMARK   39  A    between atoms: _85  and  _86
REMARK   40  A    between atoms: _85  and  _88
REMARK   41  A    between atoms: _88  and  _89
REMARK   42  A    between atoms: _92  and  _94
REMARK   43  A    between atoms: _94  and  _95
REMARK   44  A    between atoms: _94  and  _97
REMARK   45  A    between atoms: _97  and  _98
REMARK   46  A    between atoms: _108  and  _110
REMARK   47  A    between atoms: _110  and  _111
REMARK   48  A    between atoms: _110  and  _113
REMARK   49  A    between atoms: _113  and  _114
REMARK   50  A    between atoms: _119  and  _121
REMARK   51  A    between atoms: _121  and  _122
REMARK   52  A    between atoms: _121  and  _124
REMARK   53  A    between atoms: _124  and  _125
REMARK   54  A    between atoms: _125  and  _126
REMARK   55  A    between atoms: _129  and  _131
REMARK   56  A    between atoms: _131  and  _132
REMARK   57  A    between atoms: _131  and  _134
REMARK   58  A    between atoms: _134  and  _135
REMARK   59  A    between atoms: _135  and  _136
REMARK   60  A    between atoms: _136  and  _137
REMARK   61  A    between atoms: _146  and  _148
REMARK   62  A    between atoms: _148  and  _149
REMARK   63  A    between atoms: _148  and  _151
REMARK   64  A    between atoms: _151  and  _152
REMARK   65  A    between atoms: _155  and  _157
REMARK   66  A    between atoms: _157  and  _158
REMARK   67  A    between atoms: _157  and  _160
REMARK   68  A    between atoms: _160  and  _161
REMARK   69  A    between atoms: _166  and  _168
REMARK   70  A    between atoms: _168  and  _169
REMARK   71  A    between atoms: _168  and  _171
REMARK   72  A    between atoms: _171  and  _172
REMARK   73  A    between atoms: _177  and  _178
REMARK   74  A    between atoms: _180  and  _182
REMARK   75  A    between atoms: _182  and  _183
REMARK   76  A    between atoms: _182  and  _185
REMARK   77  A    between atoms: _185  and  _186
REMARK   78  A    between atoms: _188  and  _190
REMARK   79  A    between atoms: _190  and  _191
REMARK   80  A    between atoms: _190  and  _193
REMARK   81  A    between atoms: _193  and  _194
REMARK   82  A    between atoms: _194  and  _195
REMARK   83  A    between atoms: _198  and  _200
REMARK   84  A    between atoms: _200  and  _201
REMARK   85  A    between atoms: _200  and  _203
REMARK   86  A    between atoms: _203  and  _204
REMARK   87  A    between atoms: _207  and  _209
REMARK   88  A    between atoms: _209  and  _210
REMARK   89  A    between atoms: _209  and  _212
REMARK   90  A    between atoms: _212  and  _213
REMARK   91  A    between atoms: _219  and  _221
REMARK   92  A    between atoms: _221  and  _222
REMARK   93  A    between atoms: _221  and  _224
REMARK   94  A    between atoms: _224  and  _225
REMARK   95  A    between atoms: _227  and  _229
REMARK   96  A    between atoms: _229  and  _230
REMARK   97  A    between atoms: _229  and  _232
REMARK   98  A    between atoms: _232  and  _233
REMARK   99  A    between atoms: _236  and  _238
REMARK  100  A    between atoms: _238  and  _239
REMARK  101  A    between atoms: _238  and  _241
REMARK  102  A    between atoms: _241  and  _242
REMARK  103  A    between atoms: _252  and  _254
REMARK  104  A    between atoms: _254  and  _255
REMARK  105  A    between atoms: _254  and  _257
REMARK  106  A    between atoms: _257  and  _258
REMARK  107  A    between atoms: _264  and  _265
REMARK  108  A    between atoms: _270  and  _272
REMARK  109  A    between atoms: _272  and  _273
REMARK  110  A    between atoms: _272  and  _275
REMARK  111  A    between atoms: _275  and  _276
REMARK  112  A    between atoms: _281  and  _282
REMARK  113  A    between atoms: _284  and  _286
REMARK  114  A    between atoms: _286  and  _287
REMARK  115  A    between atoms: _286  and  _289
REMARK  116  A    between atoms: _289  and  _290
REMARK  117  A    between atoms: _292  and  _294
REMARK  118  A    between atoms: _294  and  _295
REMARK  119  A    between atoms: _294  and  _297
REMARK  120  A    between atoms: _297  and  _298
REMARK  121  A    between atoms: _301  and  _303
REMARK  122  A    between atoms: _303  and  _304
REMARK  123  A    between atoms: _303  and  _306
REMARK  124  A    between atoms: _306  and  _307
REMARK  125  A    between atoms: _307  and  _308
REMARK  126  A    between atoms: _308  and  _309
REMARK  127  A    between atoms: _318  and  _320
REMARK  128  A    between atoms: _320  and  _321
REMARK  129  A    between atoms: _320  and  _323
REMARK  130  A    between atoms: _323  and  _324
REMARK  131  A    between atoms: _334  and  _336
REMARK  132  A    between atoms: _336  and  _337
REMARK  133  A    between atoms: _336  and  _339
REMARK  134  A    between atoms: _339  and  _340
REMARK                            x       y       z     vdW  Elec       q    Type
REMARK                         _______ _______ _______ _____ _____    ______ ____
ROOT
ATOM      1  CA  ASP A   1      69.695  94.761  15.549  0.00  0.00    +0.144 C 
ENDROOT
BRANCH   1   2
ATOM      2  N   ASP A   1      68.375  95.211  15.121  0.00  0.00    -0.239 NA
ATOM      3  H   ASP A   1      68.316  96.066  14.533  0.00  0.00    +0.142 HD
ENDBRANCH   1   2
BRANCH   1   4
ATOM      4  C   ASP A   1      69.947  93.307  15.208  0.00  0.00    +0.225 C 
ATOM      5  O   ASP A   1      70.426  92.532  16.030  0.00  0.00    -0.287 OA
ENDBRANCH   1   4
BRANCH   1   6
ATOM      6  CB  ASP A   1      69.887  95.005  17.050  0.00  0.00    +0.139 C 
BRANCH   6   7
ATOM      7  CG  ASP A   1      70.344  96.416  17.339  0.00  0.00    +0.367 C 
ATOM      8  OD2 ASP A   1      69.506  97.228  17.773  0.00  0.00    -0.246 OA
ATOM      9  OD1 ASP A   1      71.533  96.716  17.094  0.00  0.00    -0.246 OA
ENDBRANCH   6   7
ENDBRANCH   1   6
TORSDOF 4
REMARK  Name = ../refined-set-2016/4ufj/4ufj_pocket.pdb
REMARK  134 active torsions:
REMARK  status: ('A' for Active; 'I' for Inactive)
REMARK    1  A    between atoms: _1  and  _3
REMARK    2  A    between atoms: _3  and  _4
REMARK    3  A    between atoms: _3  and  _6
REMARK    4  A    between atoms: _9  and  _11
REMARK    5  A    between atoms: _11  and  _12
REMARK    6  A    between atoms: _14  and  _16
REMARK    7  A    between atoms: _16  and  _17
REMARK    8  A    between atoms: _19  and  _21
REMARK    9  A    between atoms: _21  and  _22
REMARK   10  A    between atoms: _24  and  _26
REMARK   11  A    between atoms: _26  and  _27
REMARK   12  A    between atoms: _26  and  _29
REMARK   13  A    between atoms: _29  and  _30
REMARK   14  A    between atoms: _33  and  _35
REMARK   15  A    between atoms: _35  and  _36
REMARK   16  A    between atoms: _35  and  _38
REMARK   17  A    between atoms: _38  and  _39
REMARK   18  A    between atoms: _39  and  _40
REMARK   19  A    between atoms: _40  and  _41
REMARK   20  A    between atoms: _41  and  _42
REMARK   21  A    between atoms: _46  and  _48
REMARK   22  A    between atoms: _48  and  _49
REMARK   23  A    between atoms: _48  and  _51
REMARK   24  A    between atoms: _51  and  _52
REMARK   25  A    between atoms: _52  and  _53
REMARK   26  A    between atoms: _56  and  _58
REMARK   27  A    between atoms: _58  and  _59
REMARK   28  A    between atoms: _58  and  _61
REMARK   29  A    between atoms: _61  and  _62
REMARK   30  A    between atoms: _65  and  _67
REMARK   31  A    between atoms: _67  and  _68
REMARK   32  A    between atoms: _67  and  _70
REMARK   33  A    between atoms: _70  and  _71
REMARK   34  A    between atoms: _74  and  _76
REMARK   35  A    between atoms: _76  and  _77
REMARK   36  A    between atoms: _76  and  _79
REMARK   37  A    between atoms: _79  and  _80
REMARK   38  A    between atoms: _83  and  _85
REMARK   39  A    between atoms: _85  and  _86
REMARK   40  A    between atoms: _85  and  _88
REMARK   41  A    between atoms: _88  and  _89
REMARK   42  A    between atoms: _92  and  _94
REMARK   43  A    between atoms: _94  and  _95
REMARK   44  A    between atoms: _94  and  _97
REMARK   45  A    between atoms: _97  and  _98
REMARK   46  A    between atoms: _108  and  _110
REMARK   47  A    between atoms: _110  and  _111
REMARK   48  A    between atoms: _110  and  _113
REMARK   49  A    between atoms: _113  and  _114
REMARK   50  A    between atoms: _119  and  _121
REMARK   51  A    between atoms: _121  and  _122
REMARK   52  A    between atoms: _121  and  _124
REMARK   53  A    between atoms: _124  and  _125
REMARK   54  A    between atoms: _125  and  _126
REMARK   55  A    between atoms: _129  and  _131
REMARK   56  A    between atoms: _131  and  _132
REMARK   57  A    between atoms: _131  and  _134
REMARK   58  A    between atoms: _134  and  _135
REMARK   59  A    between atoms: _135  and  _136
REMARK   60  A    between atoms: _136  and  _137
REMARK   61  A    between atoms: _146  and  _148
REMARK   62  A    between atoms: _148  and  _149
REMARK   63  A    between atoms: _148  and  _151
REMARK   64  A    between atoms: _151  and  _152
REMARK   65  A    between atoms: _155  and  _157
REMARK   66  A    between atoms: _157  and  _158
REMARK   67  A    between atoms: _157  and  _160
REMARK   68  A    between atoms: _160  and  _161
REMARK   69  A    between atoms: _166  and  _168
REMARK   70  A    between atoms: _168  and  _169
REMARK   71  A    between atoms: _168  and  _171
REMARK   72  A    between atoms: _171  and  _172
REMARK   73  A    between atoms: _177  and  _178
REMARK   74  A    between atoms: _180  and  _182
REMARK   75  A    between atoms: _182  and  _183
REMARK   76  A    between atoms: _182  and  _185
REMARK   77  A    between atoms: _185  and  _186
REMARK   78  A    between atoms: _188  and  _190
REMARK   79  A    between atoms: _190  and  _191
REMARK   80  A    between atoms: _190  and  _193
REMARK   81  A    between atoms: _193  and  _194
REMARK   82  A    between atoms: _194  and  _195
REMARK   83  A    between atoms: _198  and  _200
REMARK   84  A    between atoms: _200  and  _201
REMARK   85  A    between atoms: _200  and  _203
REMARK   86  A    between atoms: _203  and  _204
REMARK   87  A    between atoms: _207  and  _209
REMARK   88  A    between atoms: _209  and  _210
REMARK   89  A    between atoms: _209  and  _212
REMARK   90  A    between atoms: _212  and  _213
REMARK   91  A    between atoms: _219  and  _221
REMARK   92  A    between atoms: _221  and  _222
REMARK   93  A    between atoms: _221  and  _224
REMARK   94  A    between atoms: _224  and  _225
REMARK   95  A    between atoms: _227  and  _229
REMARK   96  A    between atoms: _229  and  _230
REMARK   97  A    between atoms: _229  and  _232
REMARK   98  A    between atoms: _232  and  _233
REMARK   99  A    between atoms: _236  and  _238
REMARK  100  A    between atoms: _238  and  _239
REMARK  101  A    between atoms: _238  and  _241
REMARK  102  A    between atoms: _241  and  _242
REMARK  103  A    between atoms: _252  and  _254
REMARK  104  A    between atoms: _254  and  _255
REMARK  105  A    between atoms: _254  and  _257
REMARK  106  A    between atoms: _257  and  _258
REMARK  107  A    between atoms: _264  and  _265
REMARK  108  A    between atoms: _270  and  _272
REMARK  109  A    between atoms: _272  and  _273
REMARK  110  A    between atoms: _272  and  _275
REMARK  111  A    between atoms: _275  and  _276
REMARK  112  A    between atoms: _281  and  _282
REMARK  113  A    between atoms: _284  and  _286
REMARK  114  A    between atoms: _286  and  _287
REMARK  115  A    between atoms: _286  and  _289
REMARK  116  A    between atoms: _289  and  _290
REMARK  117  A    between atoms: _292  and  _294
REMARK  118  A    between atoms: _294  and  _295
REMARK  119  A    between atoms: _294  and  _297
REMARK  120  A    between atoms: _297  and  _298
REMARK  121  A    between atoms: _301  and  _303
REMARK  122  A    between atoms: _303  and  _304
REMARK  123  A    between atoms: _303  and  _306
REMARK  124  A    between atoms: _306  and  _307
REMARK  125  A    between atoms: _307  and  _308
REMARK  126  A    between atoms: _308  and  _309
REMARK  127  A    between atoms: _318  and  _320
REMARK  128  A    between atoms: _320  and  _321
REMARK  129  A    between atoms: _320  and  _323
REMARK  130  A    between atoms: _323  and  _324
REMARK  131  A    between atoms: _334  and  _336
REMARK  132  A    between atoms: _336  and  _337
REMARK  133  A    between atoms: _336  and  _339
REMARK  134  A    between atoms: _339  and  _340
REMARK                            x       y       z     vdW  Elec       q    Type
REMARK                         _______ _______ _______ _____ _____    ______ ____
ROOT
ATOM      1  C   HIS A   1      75.537  92.933  11.152  0.00  0.00    +0.239 C 
ATOM      2  N   TYR A   2      76.818  93.284  11.122  0.00  0.00    -0.298 N 
ATOM      3  H   TYR A   2      77.133  94.047  11.755  0.00  0.00    +0.150 HD
ATOM      4  O   HIS A   1      75.038  92.082  10.419  0.00  0.00    -0.274 OA
ENDROOT
BRANCH   1   5
ATOM      5  CA  HIS A   1      74.698  93.644  12.196  0.00  0.00    +0.151 C 
BRANCH   5   6
ATOM      6  N   HIS A   1      73.436  94.152  11.668  0.00  0.00    -0.238 NA
ATOM      7  H   HIS A   1      72.677  93.482  11.430  0.00  0.00    +0.142 HD
ENDBRANCH   5   6
BRANCH   5   8
ATOM      8  CB  HIS A   1      74.450  92.691  13.361  0.00  0.00    +0.074 C 
BRANCH   8   9
ATOM      9  CG  HIS A   1      73.935  93.363  14.592  0.00  0.00    +0.082 A 
ATOM     10  ND1 HIS A   1      73.951  92.757  15.830  0.00  0.00    -0.227 NA
ATOM     11  CE1 HIS A   1      73.438  93.580  16.727  0.00  0.00    +0.199 A 
ATOM     12  NE2 HIS A   1      73.086  94.696  16.116  0.00  0.00    -0.221 NA
ATOM     13  CD2 HIS A   1      73.390  94.587  14.779  0.00  0.00    +0.115 A 
ENDBRANCH   8   9
ENDBRANCH   5   8
ENDBRANCH   1   5
BRANCH   2  14
ATOM     14  CA  TYR A   2      77.807  92.660  10.252  0.00  0.00    +0.141 C 
BRANCH  14  15
ATOM     15  C   TYR A   2      77.329  92.548   8.799  0.00  0.00    +0.227 C 
ATOM     16  O   TYR A   2      77.284  91.461   8.240  0.00  0.00    -0.286 OA
ENDBRANCH  14  15
BRANCH  14  17
ATOM     17  CB  TYR A   2      78.193  91.294  10.832  0.00  0.00    +0.054 C 
BRANCH  17  18
ATOM     18  CG  TYR A   2      78.710  91.440  12.248  0.00  0.00    -0.020 A 
ATOM     19  CD2 TYR A   2      77.860  91.299  13.338  0.00  0.00    -0.001 A 
ATOM     20  CE2 TYR A   2      78.319  91.464  14.631  0.00  0.00    +0.036 A 
ATOM     21  CZ  TYR A   2      79.640  91.784  14.849  0.00  0.00    +0.134 A 
ATOM     22  CE1 TYR A   2      80.506  91.940  13.785  0.00  0.00    +0.036 A 
ATOM     23  CD1 TYR A   2      80.036  91.777  12.492  0.00  0.00    -0.001 A 
BRANCH  21  24
ATOM     24  OH  TYR A   2      80.099  91.951  16.132  0.00  0.00    -0.506 OA
ATOM     25  HH  TYR A   2      79.597  92.685  16.568  0.00  0.00    +0.292 HD
ENDBRANCH  21  24
ENDBRANCH  17  18
ENDBRANCH  14  17
ENDBRANCH   2  14
TORSDOF 9
REMARK  Name = ../refined-set-2016/4ufj/4ufj_pocket.pdb
REMARK  134 active torsions:
REMARK  status: ('A' for Active; 'I' for Inactive)
REMARK    1  A    between atoms: _1  and  _3
REMARK    2  A    between atoms: _3  and  _4
REMARK    3  A    between atoms: _3  and  _6
REMARK    4  A    between atoms: _9  and  _11
REMARK    5  A    between atoms: _11  and  _12
REMARK    6  A    between atoms: _14  and  _16
REMARK    7  A    between atoms: _16  and  _17
REMARK    8  A    between atoms: _19  and  _21
REMARK    9  A    between atoms: _21  and  _22
REMARK   10  A    between atoms: _24  and  _26
REMARK   11  A    between atoms: _26  and  _27
REMARK   12  A    between atoms: _26  and  _29
REMARK   13  A    between atoms: _29  and  _30
REMARK   14  A    between atoms: _33  and  _35
REMARK   15  A    between atoms: _35  and  _36
REMARK   16  A    between atoms: _35  and  _38
REMARK   17  A    between atoms: _38  and  _39
REMARK   18  A    between atoms: _39  and  _40
REMARK   19  A    between atoms: _40  and  _41
REMARK   20  A    between atoms: _41  and  _42
REMARK   21  A    between atoms: _46  and  _48
REMARK   22  A    between atoms: _48  and  _49
REMARK   23  A    between atoms: _48  and  _51
REMARK   24  A    between atoms: _51  and  _52
REMARK   25  A    between atoms: _52  and  _53
REMARK   26  A    between atoms: _56  and  _58
REMARK   27  A    between atoms: _58  and  _59
REMARK   28  A    between atoms: _58  and  _61
REMARK   29  A    between atoms: _61  and  _62
REMARK   30  A    between atoms: _65  and  _67
REMARK   31  A    between atoms: _67  and  _68
REMARK   32  A    between atoms: _67  and  _70
REMARK   33  A    between atoms: _70  and  _71
REMARK   34  A    between atoms: _74  and  _76
REMARK   35  A    between atoms: _76  and  _77
REMARK   36  A    between atoms: _76  and  _79
REMARK   37  A    between atoms: _79  and  _80
REMARK   38  A    between atoms: _83  and  _85
REMARK   39  A    between atoms: _85  and  _86
REMARK   40  A    between atoms: _85  and  _88
REMARK   41  A    between atoms: _88  and  _89
REMARK   42  A    between atoms: _92  and  _94
REMARK   43  A    between atoms: _94  and  _95
REMARK   44  A    between atoms: _94  and  _97
REMARK   45  A    between atoms: _97  and  _98
REMARK   46  A    between atoms: _108  and  _110
REMARK   47  A    between atoms: _110  and  _111
REMARK   48  A    between atoms: _110  and  _113
REMARK   49  A    between atoms: _113  and  _114
REMARK   50  A    between atoms: _119  and  _121
REMARK   51  A    between atoms: _121  and  _122
REMARK   52  A    between atoms: _121  and  _124
REMARK   53  A    between atoms: _124  and  _125
REMARK   54  A    between atoms: _125  and  _126
REMARK   55  A    between atoms: _129  and  _131
REMARK   56  A    between atoms: _131  and  _132
REMARK   57  A    between atoms: _131  and  _134
REMARK   58  A    between atoms: _134  and  _135
REMARK   59  A    between atoms: _135  and  _136
REMARK   60  A    between atoms: _136  and  _137
REMARK   61  A    between atoms: _146  and  _148
REMARK   62  A    between atoms: _148  and  _149
REMARK   63  A    between atoms: _148  and  _151
REMARK   64  A    between atoms: _151  and  _152
REMARK   65  A    between atoms: _155  and  _157
REMARK   66  A    between atoms: _157  and  _158
REMARK   67  A    between atoms: _157  and  _160
REMARK   68  A    between atoms: _160  and  _161
REMARK   69  A    between atoms: _166  and  _168
REMARK   70  A    between atoms: _168  and  _169
REMARK   71  A    between atoms: _168  and  _171
REMARK   72  A    between atoms: _171  and  _172
REMARK   73  A    between atoms: _177  and  _178
REMARK   74  A    between atoms: _180  and  _182
REMARK   75  A    between atoms: _182  and  _183
REMARK   76  A    between atoms: _182  and  _185
REMARK   77  A    between atoms: _185  and  _186
REMARK   78  A    between atoms: _188  and  _190
REMARK   79  A    between atoms: _190  and  _191
REMARK   80  A    between atoms: _190  and  _193
REMARK   81  A    between atoms: _193  and  _194
REMARK   82  A    between atoms: _194  and  _195
REMARK   83  A    between atoms: _198  and  _200
REMARK   84  A    between atoms: _200  and  _201
REMARK   85  A    between atoms: _200  and  _203
REMARK   86  A    between atoms: _203  and  _204
REMARK   87  A    between atoms: _207  and  _209
REMARK   88  A    between atoms: _209  and  _210
REMARK   89  A    between atoms: _209  and  _212
REMARK   90  A    between atoms: _212  and  _213
REMARK   91  A    between atoms: _219  and  _221
REMARK   92  A    between atoms: _221  and  _222
REMARK   93  A    between atoms: _221  and  _224
REMARK   94  A    between atoms: _224  and  _225
REMARK   95  A    between atoms: _227  and  _229
REMARK   96  A    between atoms: _229  and  _230
REMARK   97  A    between atoms: _229  and  _232
REMARK   98  A    between atoms: _232  and  _233
REMARK   99  A    between atoms: _236  and  _238
REMARK  100  A    between atoms: _238  and  _239
REMARK  101  A    between atoms: _238  and  _241
REMARK  102  A    between atoms: _241  and  _242
REMARK  103  A    between atoms: _252  and  _254
REMARK  104  A    between atoms: _254  and  _255
REMARK  105  A    between atoms: _254  and  _257
REMARK  106  A    between atoms: _257  and  _258
REMARK  107  A    between atoms: _264  and  _265
REMARK  108  A    between atoms: _270  and  _272
REMARK  109  A    between atoms: _272  and  _273
REMARK  110  A    between atoms: _272  and  _275
REMARK  111  A    between atoms: _275  and  _276
REMARK  112  A    between atoms: _281  and  _282
REMARK  113  A    between atoms: _284  and  _286
REMARK  114  A    between atoms: _286  and  _287
REMARK  115  A    between atoms: _286  and  _289
REMARK  116  A    between atoms: _289  and  _290
REMARK  117  A    between atoms: _292  and  _294
REMARK  118  A    between atoms: _294  and  _295
REMARK  119  A    between atoms: _294  and  _297
REMARK  120  A    between atoms: _297  and  _298
REMARK  121  A    between atoms: _301  and  _303
REMARK  122  A    between atoms: _303  and  _304
REMARK  123  A    between atoms: _303  and  _306
REMARK  124  A    between atoms: _306  and  _307
REMARK  125  A    between atoms: _307  and  _308
REMARK  126  A    between atoms: _308  and  _309
REMARK  127  A    between atoms: _318  and  _320
REMARK  128  A    between atoms: _320  and  _321
REMARK  129  A    between atoms: _320  and  _323
REMARK  130  A    between atoms: _323  and  _324
REMARK  131  A    between atoms: _334  and  _336
REMARK  132  A    between atoms: _336  and  _337
REMARK  133  A    between atoms: _336  and  _339
REMARK  134  A    between atoms: _339  and  _340
REMARK                            x       y       z     vdW  Elec       q    Type
REMARK                         _______ _______ _______ _____ _____    ______ ____
ROOT
ATOM      1  C   ASP A   3      81.704  95.239  14.101  0.00  0.00    +0.241 C 
ATOM      2  O   ASP A   3      81.757  95.232  15.335  0.00  0.00    -0.273 OA
ATOM      3  N   PHE A   4      82.753  95.013  13.307  0.00  0.00    -0.297 N 
ATOM      4  H   PHE A   4      82.580  94.963  12.283  0.00  0.00    +0.150 HD
ENDROOT
BRANCH   3   5
ATOM      5  CA  PHE A   4      84.136  94.830  13.774  0.00  0.00    +0.153 C 
BRANCH   5   6
ATOM      6  C   PHE A   4      84.360  93.444  14.391  0.00  0.00    +0.241 C 
ATOM      7  N   SER A   5      84.387  93.365  15.720  0.00  0.00    -0.295 N 
ATOM      8  H   SER A   5      84.289  94.238  16.276  0.00  0.00    +0.150 HD
ATOM      9  O   PHE A   4      84.521  92.467  13.664  0.00  0.00    -0.273 OA
BRANCH   7  10
ATOM     10  CA  SER A   5      84.549  92.093  16.427  0.00  0.00    +0.178 C 
BRANCH  10  11
ATOM     11  C   SER A   5      85.777  91.305  15.971  0.00  0.00    +0.243 C 
ATOM     12  O   SER A   5      85.755  90.081  15.907  0.00  0.00    -0.273 OA
ATOM     13  N   THR A   6      86.854  92.015  15.672  0.00  0.00    -0.296 N 
ATOM     14  H   THR A   6      86.828  93.050  15.770  0.00  0.00    +0.150 HD
BRANCH  13  15
ATOM     15  CA  THR A   6      88.072  91.370  15.209  0.00  0.00    +0.164 C 
BRANCH  15  16
ATOM     16  CB  THR A   6      88.358  91.731  13.733  0.00  0.00    +0.136 C 
ATOM     17  CG2 THR A   6      89.493  90.882  13.166  0.00  0.00    +0.034 C 
BRANCH  16  18
ATOM     18  OG1 THR A   6      87.177  91.500  12.959  0.00  0.00    -0.382 OA
ATOM     19  HG1 THR A   6      86.441  92.065  13.305  0.00  0.00    +0.210 HD
ENDBRANCH  16  18
ENDBRANCH  15  16
BRANCH  15  20
ATOM     20  C   THR A   6      89.237  91.776  16.105  0.00  0.00    +0.229 C 
ATOM     21  O   THR A   6      89.267  92.891  16.614  0.00  0.00    -0.286 OA
ENDBRANCH  15  20
ENDBRANCH  13  15
ENDBRANCH  10  11
BRANCH  10  22
ATOM     22  CB  SER A   5      83.288  91.240  16.266  0.00  0.00    +0.166 C 
BRANCH  22  23
ATOM     23  OG  SER A   5      83.439  89.971  16.873  0.00  0.00    -0.380 OA
ATOM     24  H   SER A   5      82.608  89.447  16.751  0.00  0.00    +0.211 HD
ENDBRANCH  22  23
ENDBRANCH  10  22
ENDBRANCH   7  10
ENDBRANCH   5   6
BRANCH   5  25
ATOM     25  CB  PHE A   4      84.523  95.942  14.761  0.00  0.00    +0.055 C 
BRANCH  25  26
ATOM     26  CG  PHE A   4      85.960  95.903  15.197  0.00  0.00    -0.020 A 
ATOM     27  CD2 PHE A   4      86.285  95.751  16.537  0.00  0.00    -0.004 A 
ATOM     28  CE2 PHE A   4      87.603  95.722  16.945  0.00  0.00    -0.000 A 
ATOM     29  CZ  PHE A   4      88.620  95.856  16.008  0.00  0.00    -0.000 A 
ATOM     30  CE1 PHE A   4      88.308  96.014  14.675  0.00  0.00    -0.000 A 
ATOM     31  CD1 PHE A   4      86.985  96.041  14.274  0.00  0.00    -0.004 A 
ENDBRANCH  25  26
ENDBRANCH   5  25
ENDBRANCH   3   5
BRANCH   1  32
ATOM     32  CA  ASP A   3      80.378  95.523  13.393  0.00  0.00    +0.160 C 
BRANCH  32  34
ATOM     33  C   GLU A   2      78.090  95.761  14.213  0.00  0.00    +0.241 C 
ATOM     34  N   ASP A   3      79.394  95.962  14.375  0.00  0.00    -0.297 N 
ATOM     35  H   ASP A   3      79.724  96.450  15.232  0.00  0.00    +0.150 HD
ATOM     36  O   GLU A   2      77.617  95.144  13.263  0.00  0.00    -0.273 OA
BRANCH  33  37
ATOM     37  CA  GLU A   2      77.189  96.342  15.292  0.00  0.00    +0.149 C 
BRANCH  37  40
ATOM     38  C   SER A   1      75.463  98.063  15.361  0.00  0.00    +0.241 C 
ATOM     39  O   SER A   1      75.527  98.159  16.579  0.00  0.00    -0.274 OA
ATOM     40  N   GLU A   2      76.120  97.127  14.681  0.00  0.00    -0.297 N 
ATOM     41  H   GLU A   2      75.866  96.950  13.688  0.00  0.00    +0.150 HD
BRANCH  38  42
ATOM     42  CA  SER A   1      74.586  99.027  14.559  0.00  0.00    +0.174 C 
BRANCH  42  43
ATOM     43  N   SER A   1      74.731  98.857  13.113  0.00  0.00    -0.236 NA
ATOM     44  H   SER A   1      73.978  98.382  12.576  0.00  0.00    +0.142 HD
ENDBRANCH  42  43
BRANCH  42  45
ATOM     45  CB  SER A   1      73.117  98.876  14.974  0.00  0.00    +0.163 C 
BRANCH  45  46
ATOM     46  OG  SER A   1      72.614  97.597  14.642  0.00  0.00    -0.380 OA
ATOM     47  H   SER A   1      71.667  97.533  14.923  0.00  0.00    +0.211 HD
ENDBRANCH  45  46
ENDBRANCH  42  45
ENDBRANCH  38  42
ENDBRANCH  37  40
BRANCH  37  48
ATOM     48  CB  GLU A   2      76.648  95.214  16.182  0.00  0.00    +0.041 C 
BRANCH  48  49
ATOM     49  CG  GLU A   2      77.694  94.743  17.214  0.00  0.00    +0.116 C 
BRANCH  49  50
ATOM     50  CD  GLU A   2      77.298  93.489  17.974  0.00  0.00    +0.365 C 
ATOM     51  OE2 GLU A   2      76.275  93.507  18.683  0.00  0.00    -0.246 OA
ATOM     52  OE1 GLU A   2      78.020  92.480  17.866  0.00  0.00    -0.246 OA
ENDBRANCH  49  50
ENDBRANCH  48  49
ENDBRANCH  37  48
ENDBRANCH  33  37
ENDBRANCH  32  34
BRANCH  32  53
ATOM     53  CB  ASP A   3      80.565  96.589  12.308  0.00  0.00    +0.143 C 
BRANCH  53  54
ATOM     54  CG  ASP A   3      80.514  96.016  10.895  0.00  0.00    +0.367 C 
ATOM     55  OD2 ASP A   3      80.896  94.843  10.712  0.00  0.00    -0.246 OA
ATOM     56  OD1 ASP A   3      80.101  96.749   9.966  0.00  0.00    -0.246 OA
ENDBRANCH  53  54
ENDBRANCH  32  53
ENDBRANCH   1  32
TORSDOF 25
REMARK  Name = ../refined-set-2016/4ufj/4ufj_pocket.pdb
REMARK  134 active torsions:
REMARK  status: ('A' for Active; 'I' for Inactive)
REMARK    1  A    between atoms: _1  and  _3
REMARK    2  A    between atoms: _3  and  _4
REMARK    3  A    between atoms: _3  and  _6
REMARK    4  A    between atoms: _9  and  _11
REMARK    5  A    between atoms: _11  and  _12
REMARK    6  A    between atoms: _14  and  _16
REMARK    7  A    between atoms: _16  and  _17
REMARK    8  A    between atoms: _19  and  _21
REMARK    9  A    between atoms: _21  and  _22
REMARK   10  A    between atoms: _24  and  _26
REMARK   11  A    between atoms: _26  and  _27
REMARK   12  A    between atoms: _26  and  _29
REMARK   13  A    between atoms: _29  and  _30
REMARK   14  A    between atoms: _33  and  _35
REMARK   15  A    between atoms: _35  and  _36
REMARK   16  A    between atoms: _35  and  _38
REMARK   17  A    between atoms: _38  and  _39
REMARK   18  A    between atoms: _39  and  _40
REMARK   19  A    between atoms: _40  and  _41
REMARK   20  A    between atoms: _41  and  _42
REMARK   21  A    between atoms: _46  and  _48
REMARK   22  A    between atoms: _48  and  _49
REMARK   23  A    between atoms: _48  and  _51
REMARK   24  A    between atoms: _51  and  _52
REMARK   25  A    between atoms: _52  and  _53
REMARK   26  A    between atoms: _56  and  _58
REMARK   27  A    between atoms: _58  and  _59
REMARK   28  A    between atoms: _58  and  _61
REMARK   29  A    between atoms: _61  and  _62
REMARK   30  A    between atoms: _65  and  _67
REMARK   31  A    between atoms: _67  and  _68
REMARK   32  A    between atoms: _67  and  _70
REMARK   33  A    between atoms: _70  and  _71
REMARK   34  A    between atoms: _74  and  _76
REMARK   35  A    between atoms: _76  and  _77
REMARK   36  A    between atoms: _76  and  _79
REMARK   37  A    between atoms: _79  and  _80
REMARK   38  A    between atoms: _83  and  _85
REMARK   39  A    between atoms: _85  and  _86
REMARK   40  A    between atoms: _85  and  _88
REMARK   41  A    between atoms: _88  and  _89
REMARK   42  A    between atoms: _92  and  _94
REMARK   43  A    between atoms: _94  and  _95
REMARK   44  A    between atoms: _94  and  _97
REMARK   45  A    between atoms: _97  and  _98
REMARK   46  A    between atoms: _108  and  _110
REMARK   47  A    between atoms: _110  and  _111
REMARK   48  A    between atoms: _110  and  _113
REMARK   49  A    between atoms: _113  and  _114
REMARK   50  A    between atoms: _119  and  _121
REMARK   51  A    between atoms: _121  and  _122
REMARK   52  A    between atoms: _121  and  _124
REMARK   53  A    between atoms: _124  and  _125
REMARK   54  A    between atoms: _125  and  _126
REMARK   55  A    between atoms: _129  and  _131
REMARK   56  A    between atoms: _131  and  _132
REMARK   57  A    between atoms: _131  and  _134
REMARK   58  A    between atoms: _134  and  _135
REMARK   59  A    between atoms: _135  and  _136
REMARK   60  A    between atoms: _136  and  _137
REMARK   61  A    between atoms: _146  and  _148
REMARK   62  A    between atoms: _148  and  _149
REMARK   63  A    between atoms: _148  and  _151
REMARK   64  A    between atoms: _151  and  _152
REMARK   65  A    between atoms: _155  and  _157
REMARK   66  A    between atoms: _157  and  _158
REMARK   67  A    between atoms: _157  and  _160
REMARK   68  A    between atoms: _160  and  _161
REMARK   69  A    between atoms: _166  and  _168
REMARK   70  A    between atoms: _168  and  _169
REMARK   71  A    between atoms: _168  and  _171
REMARK   72  A    between atoms: _171  and  _172
REMARK   73  A    between atoms: _177  and  _178
REMARK   74  A    between atoms: _180  and  _182
REMARK   75  A    between atoms: _182  and  _183
REMARK   76  A    between atoms: _182  and  _185
REMARK   77  A    between atoms: _185  and  _186
REMARK   78  A    between atoms: _188  and  _190
REMARK   79  A    between atoms: _190  and  _191
REMARK   80  A    between atoms: _190  and  _193
REMARK   81  A    between atoms: _193  and  _194
REMARK   82  A    between atoms: _194  and  _195
REMARK   83  A    between atoms: _198  and  _200
REMARK   84  A    between atoms: _200  and  _201
REMARK   85  A    between atoms: _200  and  _203
REMARK   86  A    between atoms: _203  and  _204
REMARK   87  A    between atoms: _207  and  _209
REMARK   88  A    between atoms: _209  and  _210
REMARK   89  A    between atoms: _209  and  _212
REMARK   90  A    between atoms: _212  and  _213
REMARK   91  A    between atoms: _219  and  _221
REMARK   92  A    between atoms: _221  and  _222
REMARK   93  A    between atoms: _221  and  _224
REMARK   94  A    between atoms: _224  and  _225
REMARK   95  A    between atoms: _227  and  _229
REMARK   96  A    between atoms: _229  and  _230
REMARK   97  A    between atoms: _229  and  _232
REMARK   98  A    between atoms: _232  and  _233
REMARK   99  A    between atoms: _236  and  _238
REMARK  100  A    between atoms: _238  and  _239
REMARK  101  A    between atoms: _238  and  _241
REMARK  102  A    between atoms: _241  and  _242
REMARK  103  A    between atoms: _252  and  _254
REMARK  104  A    between atoms: _254  and  _255
REMARK  105  A    between atoms: _254  and  _257
REMARK  106  A    between atoms: _257  and  _258
REMARK  107  A    between atoms: _264  and  _265
REMARK  108  A    between atoms: _270  and  _272
REMARK  109  A    between atoms: _272  and  _273
REMARK  110  A    between atoms: _272  and  _275
REMARK  111  A    between atoms: _275  and  _276
REMARK  112  A    between atoms: _281  and  _282
REMARK  113  A    between atoms: _284  and  _286
REMARK  114  A    between atoms: _286  and  _287
REMARK  115  A    between atoms: _286  and  _289
REMARK  116  A    between atoms: _289  and  _290
REMARK  117  A    between atoms: _292  and  _294
REMARK  118  A    between atoms: _294  and  _295
REMARK  119  A    between atoms: _294  and  _297
REMARK  120  A    between atoms: _297  and  _298
REMARK  121  A    between atoms: _301  and  _303
REMARK  122  A    between atoms: _303  and  _304
REMARK  123  A    between atoms: _303  and  _306
REMARK  124  A    between atoms: _306  and  _307
REMARK  125  A    between atoms: _307  and  _308
REMARK  126  A    between atoms: _308  and  _309
REMARK  127  A    between atoms: _318  and  _320
REMARK  128  A    between atoms: _320  and  _321
REMARK  129  A    between atoms: _320  and  _323
REMARK  130  A    between atoms: _323  and  _324
REMARK  131  A    between atoms: _334  and  _336
REMARK  132  A    between atoms: _336  and  _337
REMARK  133  A    between atoms: _336  and  _339
REMARK  134  A    between atoms: _339  and  _340
REMARK                            x       y       z     vdW  Elec       q    Type
REMARK                         _______ _______ _______ _____ _____    ______ ____
ROOT
ATOM      1  CA  TRP A   1      81.814  95.547  19.152  0.00  0.00    +0.149 C 
ENDROOT
BRANCH   1   2
ATOM      2  C   TRP A   1      83.255  95.057  19.238  0.00  0.00    +0.239 C 
ATOM      3  N   ASN A   2      83.979  95.386  20.310  0.00  0.00    -0.298 N 
ATOM      4  H   ASN A   2      84.971  95.076  20.339  0.00  0.00    +0.150 HD
ATOM      5  O   TRP A   1      83.712  94.373  18.331  0.00  0.00    -0.274 OA
BRANCH   3   6
ATOM      6  CA  ASN A   2      83.470  96.152  21.445  0.00  0.00    +0.146 C 
BRANCH   6   7
ATOM      7  C   ASN A   2      84.336  97.374  21.750  0.00  0.00    +0.227 C 
ATOM      8  O   ASN A   2      85.381  97.580  21.130  0.00  0.00    -0.286 OA
ENDBRANCH   6   7
BRANCH   6   9
ATOM      9  CB  ASN A   2      83.383  95.259  22.690  0.00  0.00    +0.112 C 
BRANCH   9  10
ATOM     10  CG  ASN A   2      84.653  94.451  22.926  0.00  0.00    +0.222 C 
ATOM     11  OD1 ASN A   2      85.669  94.984  23.361  0.00  0.00    -0.275 OA
ATOM     12  ND2 ASN A   2      84.589  93.157  22.648  0.00  0.00    -0.329 N 
ATOM     13 HD21 ASN A   2      85.421  92.551  22.797  0.00  0.00    +0.145 HD
ATOM     14 HD22 ASN A   2      83.707  92.747  22.281  0.00  0.00    +0.145 HD
ENDBRANCH   9  10
ENDBRANCH   6   9
ENDBRANCH   3   6
ENDBRANCH   1   2
BRANCH   1  15
ATOM     15  N   TRP A   1      81.709  96.420  17.995  0.00  0.00    -0.238 NA
ATOM     16  H   TRP A   1      81.567  96.000  17.054  0.00  0.00    +0.142 HD
ENDBRANCH   1  15
BRANCH   1  17
ATOM     17  CB  TRP A   1      80.853  94.360  19.055  0.00  0.00    +0.054 C 
BRANCH  17  18
ATOM     18  CG  TRP A   1      80.817  93.534  20.320  0.00  0.00    -0.002 A 
ATOM     19  CD1 TRP A   1      80.016  93.736  21.401  0.00  0.00    +0.068 A 
ATOM     20  NE1 TRP A   1      80.272  92.794  22.363  0.00  0.00    -0.352 N 
ATOM     21  HE1 TRP A   1      79.789  92.724  23.282  0.00  0.00    +0.166 HD
ATOM     22  CE2 TRP A   1      81.263  91.961  21.923  0.00  0.00    +0.056 A 
ATOM     23  CZ2 TRP A   1      81.858  90.863  22.545  0.00  0.00    +0.017 A 
ATOM     24  CH2 TRP A   1      82.839  90.204  21.858  0.00  0.00    +0.001 A 
ATOM     25  CZ3 TRP A   1      83.233  90.614  20.572  0.00  0.00    +0.000 A 
ATOM     26  CE3 TRP A   1      82.638  91.701  19.953  0.00  0.00    +0.001 A 
ATOM     27  CD2 TRP A   1      81.635  92.396  20.635  0.00  0.00    +0.013 A 
ENDBRANCH  17  18
ENDBRANCH   1  17
TORSDOF 8
REMARK  Name = ../refined-set-2016/4ufj/4ufj_pocket.pdb
REMARK  134 active torsions:
REMARK  status: ('A' for Active; 'I' for Inactive)
REMARK    1  A    between atoms: _1  and  _3
REMARK    2  A    between atoms: _3  and  _4
REMARK    3  A    between atoms: _3  and  _6
REMARK    4  A    between atoms: _9  and  _11
REMARK    5  A    between atoms: _11  and  _12
REMARK    6  A    between atoms: _14  and  _16
REMARK    7  A    between atoms: _16  and  _17
REMARK    8  A    between atoms: _19  and  _21
REMARK    9  A    between atoms: _21  and  _22
REMARK   10  A    between atoms: _24  and  _26
REMARK   11  A    between atoms: _26  and  _27
REMARK   12  A    between atoms: _26  and  _29
REMARK   13  A    between atoms: _29  and  _30
REMARK   14  A    between atoms: _33  and  _35
REMARK   15  A    between atoms: _35  and  _36
REMARK   16  A    between atoms: _35  and  _38
REMARK   17  A    between atoms: _38  and  _39
REMARK   18  A    between atoms: _39  and  _40
REMARK   19  A    between atoms: _40  and  _41
REMARK   20  A    between atoms: _41  and  _42
REMARK   21  A    between atoms: _46  and  _48
REMARK   22  A    between atoms: _48  and  _49
REMARK   23  A    between atoms: _48  and  _51
REMARK   24  A    between atoms: _51  and  _52
REMARK   25  A    between atoms: _52  and  _53
REMARK   26  A    between atoms: _56  and  _58
REMARK   27  A    between atoms: _58  and  _59
REMARK   28  A    between atoms: _58  and  _61
REMARK   29  A    between atoms: _61  and  _62
REMARK   30  A    between atoms: _65  and  _67
REMARK   31  A    between atoms: _67  and  _68
REMARK   32  A    between atoms: _67  and  _70
REMARK   33  A    between atoms: _70  and  _71
REMARK   34  A    between atoms: _74  and  _76
REMARK   35  A    between atoms: _76  and  _77
REMARK   36  A    between atoms: _76  and  _79
REMARK   37  A    between atoms: _79  and  _80
REMARK   38  A    between atoms: _83  and  _85
REMARK   39  A    between atoms: _85  and  _86
REMARK   40  A    between atoms: _85  and  _88
REMARK   41  A    between atoms: _88  and  _89
REMARK   42  A    between atoms: _92  and  _94
REMARK   43  A    between atoms: _94  and  _95
REMARK   44  A    between atoms: _94  and  _97
REMARK   45  A    between atoms: _97  and  _98
REMARK   46  A    between atoms: _108  and  _110
REMARK   47  A    between atoms: _110  and  _111
REMARK   48  A    between atoms: _110  and  _113
REMARK   49  A    between atoms: _113  and  _114
REMARK   50  A    between atoms: _119  and  _121
REMARK   51  A    between atoms: _121  and  _122
REMARK   52  A    between atoms: _121  and  _124
REMARK   53  A    between atoms: _124  and  _125
REMARK   54  A    between atoms: _125  and  _126
REMARK   55  A    between atoms: _129  and  _131
REMARK   56  A    between atoms: _131  and  _132
REMARK   57  A    between atoms: _131  and  _134
REMARK   58  A    between atoms: _134  and  _135
REMARK   59  A    between atoms: _135  and  _136
REMARK   60  A    between atoms: _136  and  _137
REMARK   61  A    between atoms: _146  and  _148
REMARK   62  A    between atoms: _148  and  _149
REMARK   63  A    between atoms: _148  and  _151
REMARK   64  A    between atoms: _151  and  _152
REMARK   65  A    between atoms: _155  and  _157
REMARK   66  A    between atoms: _157  and  _158
REMARK   67  A    between atoms: _157  and  _160
REMARK   68  A    between atoms: _160  and  _161
REMARK   69  A    between atoms: _166  and  _168
REMARK   70  A    between atoms: _168  and  _169
REMARK   71  A    between atoms: _168  and  _171
REMARK   72  A    between atoms: _171  and  _172
REMARK   73  A    between atoms: _177  and  _178
REMARK   74  A    between atoms: _180  and  _182
REMARK   75  A    between atoms: _182  and  _183
REMARK   76  A    between atoms: _182  and  _185
REMARK   77  A    between atoms: _185  and  _186
REMARK   78  A    between atoms: _188  and  _190
REMARK   79  A    between atoms: _190  and  _191
REMARK   80  A    between atoms: _190  and  _193
REMARK   81  A    between atoms: _193  and  _194
REMARK   82  A    between atoms: _194  and  _195
REMARK   83  A    between atoms: _198  and  _200
REMARK   84  A    between atoms: _200  and  _201
REMARK   85  A    between atoms: _200  and  _203
REMARK   86  A    between atoms: _203  and  _204
REMARK   87  A    between atoms: _207  and  _209
REMARK   88  A    between atoms: _209  and  _210
REMARK   89  A    between atoms: _209  and  _212
REMARK   90  A    between atoms: _212  and  _213
REMARK   91  A    between atoms: _219  and  _221
REMARK   92  A    between atoms: _221  and  _222
REMARK   93  A    between atoms: _221  and  _224
REMARK   94  A    between atoms: _224  and  _225
REMARK   95  A    between atoms: _227  and  _229
REMARK   96  A    between atoms: _229  and  _230
REMARK   97  A    between atoms: _229  and  _232
REMARK   98  A    between atoms: _232  and  _233
REMARK   99  A    between atoms: _236  and  _238
REMARK  100  A    between atoms: _238  and  _239
REMARK  101  A    between atoms: _238  and  _241
REMARK  102  A    between atoms: _241  and  _242
REMARK  103  A    between atoms: _252  and  _254
REMARK  104  A    between atoms: _254  and  _255
REMARK  105  A    between atoms: _254  and  _257
REMARK  106  A    between atoms: _257  and  _258
REMARK  107  A    between atoms: _264  and  _265
REMARK  108  A    between atoms: _270  and  _272
REMARK  109  A    between atoms: _272  and  _273
REMARK  110  A    between atoms: _272  and  _275
REMARK  111  A    between atoms: _275  and  _276
REMARK  112  A    between atoms: _281  and  _282
REMARK  113  A    between atoms: _284  and  _286
REMARK  114  A    between atoms: _286  and  _287
REMARK  115  A    between atoms: _286  and  _289
REMARK  116  A    between atoms: _289  and  _290
REMARK  117  A    between atoms: _292  and  _294
REMARK  118  A    between atoms: _294  and  _295
REMARK  119  A    between atoms: _294  and  _297
REMARK  120  A    between atoms: _297  and  _298
REMARK  121  A    between atoms: _301  and  _303
REMARK  122  A    between atoms: _303  and  _304
REMARK  123  A    between atoms: _303  and  _306
REMARK  124  A    between atoms: _306  and  _307
REMARK  125  A    between atoms: _307  and  _308
REMARK  126  A    between atoms: _308  and  _309
REMARK  127  A    between atoms: _318  and  _320
REMARK  128  A    between atoms: _320  and  _321
REMARK  129  A    between atoms: _320  and  _323
REMARK  130  A    between atoms: _323  and  _324
REMARK  131  A    between atoms: _334  and  _336
REMARK  132  A    between atoms: _336  and  _337
REMARK  133  A    between atoms: _336  and  _339
REMARK  134  A    between atoms: _339  and  _340
REMARK                            x       y       z     vdW  Elec       q    Type
REMARK                         _______ _______ _______ _____ _____    ______ ____
ROOT
ATOM      1  CA  TYR A   2      86.621  86.739  20.943  0.00  0.00    +0.141 C 
ENDROOT
BRANCH   1   4
ATOM      2  C   PRO A   1      85.657  85.532  22.838  0.00  0.00    +0.239 C 
ATOM      3  O   PRO A   1      85.349  86.561  23.423  0.00  0.00    -0.274 OA
ATOM      4  N   TYR A   2      86.294  85.518  21.673  0.00  0.00    -0.298 N 
ATOM      5  H   TYR A   2      86.570  84.602  21.265  0.00  0.00    +0.150 HD
BRANCH   2  10
ATOM      6  N   PRO A   1      85.598  84.050  24.881  0.00  0.00    -0.210 NA
ATOM      7  CD  PRO A   1      84.468  83.428  25.593  0.00  0.00    +0.089 C 
ATOM      8  CG  PRO A   1      83.556  82.984  24.480  0.00  0.00    +0.021 C 
ATOM      9  CB  PRO A   1      83.820  83.909  23.352  0.00  0.00    +0.028 C 
ATOM     10  CA  PRO A   1      85.325  84.170  23.439  0.00  0.00    +0.149 C 
ENDBRANCH   2  10
ENDBRANCH   1   4
BRANCH   1  11
ATOM     11  C   TYR A   2      87.548  87.644  21.755  0.00  0.00    +0.227 C 
ATOM     12  O   TYR A   2      87.368  88.863  21.795  0.00  0.00    -0.286 OA
ENDBRANCH   1  11
BRANCH   1  13
ATOM     13  CB  TYR A   2      85.345  87.499  20.553  0.00  0.00    +0.054 C 
BRANCH  13  14
ATOM     14  CG  TYR A   2      84.358  86.705  19.718  0.00  0.00    -0.020 A 
ATOM     15  CD2 TYR A   2      83.206  86.162  20.284  0.00  0.00    -0.001 A 
ATOM     16  CE2 TYR A   2      82.296  85.438  19.512  0.00  0.00    +0.036 A 
ATOM     17  CZ  TYR A   2      82.540  85.268  18.160  0.00  0.00    +0.134 A 
ATOM     18  CE1 TYR A   2      83.673  85.805  17.587  0.00  0.00    +0.036 A 
ATOM     19  CD1 TYR A   2      84.567  86.517  18.358  0.00  0.00    -0.001 A 
BRANCH  17  20
ATOM     20  OH  TYR A   2      81.659  84.560  17.367  0.00  0.00    -0.506 OA
ATOM     21  HH  TYR A   2      81.995  84.543  16.436  0.00  0.00    +0.292 HD
ENDBRANCH  17  20
ENDBRANCH  13  14
ENDBRANCH   1  13
TORSDOF 6
REMARK  Name = ../refined-set-2016/4ufj/4ufj_pocket.pdb
REMARK  134 active torsions:
REMARK  status: ('A' for Active; 'I' for Inactive)
REMARK    1  A    between atoms: _1  and  _3
REMARK    2  A    between atoms: _3  and  _4
REMARK    3  A    between atoms: _3  and  _6
REMARK    4  A    between atoms: _9  and  _11
REMARK    5  A    between atoms: _11  and  _12
REMARK    6  A    between atoms: _14  and  _16
REMARK    7  A    between atoms: _16  and  _17
REMARK    8  A    between atoms: _19  and  _21
REMARK    9  A    between atoms: _21  and  _22
REMARK   10  A    between atoms: _24  and  _26
REMARK   11  A    between atoms: _26  and  _27
REMARK   12  A    between atoms: _26  and  _29
REMARK   13  A    between atoms: _29  and  _30
REMARK   14  A    between atoms: _33  and  _35
REMARK   15  A    between atoms: _35  and  _36
REMARK   16  A    between atoms: _35  and  _38
REMARK   17  A    between atoms: _38  and  _39
REMARK   18  A    between atoms: _39  and  _40
REMARK   19  A    between atoms: _40  and  _41
REMARK   20  A    between atoms: _41  and  _42
REMARK   21  A    between atoms: _46  and  _48
REMARK   22  A    between atoms: _48  and  _49
REMARK   23  A    between atoms: _48  and  _51
REMARK   24  A    between atoms: _51  and  _52
REMARK   25  A    between atoms: _52  and  _53
REMARK   26  A    between atoms: _56  and  _58
REMARK   27  A    between atoms: _58  and  _59
REMARK   28  A    between atoms: _58  and  _61
REMARK   29  A    between atoms: _61  and  _62
REMARK   30  A    between atoms: _65  and  _67
REMARK   31  A    between atoms: _67  and  _68
REMARK   32  A    between atoms: _67  and  _70
REMARK   33  A    between atoms: _70  and  _71
REMARK   34  A    between atoms: _74  and  _76
REMARK   35  A    between atoms: _76  and  _77
REMARK   36  A    between atoms: _76  and  _79
REMARK   37  A    between atoms: _79  and  _80
REMARK   38  A    between atoms: _83  and  _85
REMARK   39  A    between atoms: _85  and  _86
REMARK   40  A    between atoms: _85  and  _88
REMARK   41  A    between atoms: _88  and  _89
REMARK   42  A    between atoms: _92  and  _94
REMARK   43  A    between atoms: _94  and  _95
REMARK   44  A    between atoms: _94  and  _97
REMARK   45  A    between atoms: _97  and  _98
REMARK   46  A    between atoms: _108  and  _110
REMARK   47  A    between atoms: _110  and  _111
REMARK   48  A    between atoms: _110  and  _113
REMARK   49  A    between atoms: _113  and  _114
REMARK   50  A    between atoms: _119  and  _121
REMARK   51  A    between atoms: _121  and  _122
REMARK   52  A    between atoms: _121  and  _124
REMARK   53  A    between atoms: _124  and  _125
REMARK   54  A    between atoms: _125  and  _126
REMARK   55  A    between atoms: _129  and  _131
REMARK   56  A    between atoms: _131  and  _132
REMARK   57  A    between atoms: _131  and  _134
REMARK   58  A    between atoms: _134  and  _135
REMARK   59  A    between atoms: _135  and  _136
REMARK   60  A    between atoms: _136  and  _137
REMARK   61  A    between atoms: _146  and  _148
REMARK   62  A    between atoms: _148  and  _149
REMARK   63  A    between atoms: _148  and  _151
REMARK   64  A    between atoms: _151  and  _152
REMARK   65  A    between atoms: _155  and  _157
REMARK   66  A    between atoms: _157  and  _158
REMARK   67  A    between atoms: _157  and  _160
REMARK   68  A    between atoms: _160  and  _161
REMARK   69  A    between atoms: _166  and  _168
REMARK   70  A    between atoms: _168  and  _169
REMARK   71  A    between atoms: _168  and  _171
REMARK   72  A    between atoms: _171  and  _172
REMARK   73  A    between atoms: _177  and  _178
REMARK   74  A    between atoms: _180  and  _182
REMARK   75  A    between atoms: _182  and  _183
REMARK   76  A    between atoms: _182  and  _185
REMARK   77  A    between atoms: _185  and  _186
REMARK   78  A    between atoms: _188  and  _190
REMARK   79  A    between atoms: _190  and  _191
REMARK   80  A    between atoms: _190  and  _193
REMARK   81  A    between atoms: _193  and  _194
REMARK   82  A    between atoms: _194  and  _195
REMARK   83  A    between atoms: _198  and  _200
REMARK   84  A    between atoms: _200  and  _201
REMARK   85  A    between atoms: _200  and  _203
REMARK   86  A    between atoms: _203  and  _204
REMARK   87  A    between atoms: _207  and  _209
REMARK   88  A    between atoms: _209  and  _210
REMARK   89  A    between atoms: _209  and  _212
REMARK   90  A    between atoms: _212  and  _213
REMARK   91  A    between atoms: _219  and  _221
REMARK   92  A    between atoms: _221  and  _222
REMARK   93  A    between atoms: _221  and  _224
REMARK   94  A    between atoms: _224  and  _225
REMARK   95  A    between atoms: _227  and  _229
REMARK   96  A    between atoms: _229  and  _230
REMARK   97  A    between atoms: _229  and  _232
REMARK   98  A    between atoms: _232  and  _233
REMARK   99  A    between atoms: _236  and  _238
REMARK  100  A    between atoms: _238  and  _239
REMARK  101  A    between atoms: _238  and  _241
REMARK  102  A    between atoms: _241  and  _242
REMARK  103  A    between atoms: _252  and  _254
REMARK  104  A    between atoms: _254  and  _255
REMARK  105  A    between atoms: _254  and  _257
REMARK  106  A    between atoms: _257  and  _258
REMARK  107  A    between atoms: _264  and  _265
REMARK  108  A    between atoms: _270  and  _272
REMARK  109  A    between atoms: _272  and  _273
REMARK  110  A    between atoms: _272  and  _275
REMARK  111  A    between atoms: _275  and  _276
REMARK  112  A    between atoms: _281  and  _282
REMARK  113  A    between atoms: _284  and  _286
REMARK  114  A    between atoms: _286  and  _287
REMARK  115  A    between atoms: _286  and  _289
REMARK  116  A    between atoms: _289  and  _290
REMARK  117  A    between atoms: _292  and  _294
REMARK  118  A    between atoms: _294  and  _295
REMARK  119  A    between atoms: _294  and  _297
REMARK  120  A    between atoms: _297  and  _298
REMARK  121  A    between atoms: _301  and  _303
REMARK  122  A    between atoms: _303  and  _304
REMARK  123  A    between atoms: _303  and  _306
REMARK  124  A    between atoms: _306  and  _307
REMARK  125  A    between atoms: _307  and  _308
REMARK  126  A    between atoms: _308  and  _309
REMARK  127  A    between atoms: _318  and  _320
REMARK  128  A    between atoms: _320  and  _321
REMARK  129  A    between atoms: _320  and  _323
REMARK  130  A    between atoms: _323  and  _324
REMARK  131  A    between atoms: _334  and  _336
REMARK  132  A    between atoms: _336  and  _337
REMARK  133  A    between atoms: _336  and  _339
REMARK  134  A    between atoms: _339  and  _340
REMARK                            x       y       z     vdW  Elec       q    Type
REMARK                         _______ _______ _______ _____ _____    ______ ____
ROOT
ATOM      1  CA  SER A   1      88.388  92.417  20.160  0.00  0.00    +0.163 C 
ENDROOT
BRANCH   1   2
ATOM      2  N   SER A   1      89.107  91.861  21.297  0.00  0.00    -0.237 NA
ATOM      3  H   SER A   1      88.572  91.536  22.128  0.00  0.00    +0.142 HD
ENDBRANCH   1   2
BRANCH   1   4
ATOM      4  CB  SER A   1      87.726  93.743  20.511  0.00  0.00    +0.227 C 
ATOM      5  OG  SER A   1      86.571  93.980  20.172  0.00  0.00    -0.287 OA
ENDBRANCH   1   4
BRANCH   1   6
ATOM      6  C   SER A   1      87.344  91.426  19.651  0.00  0.00    +0.162 C 
BRANCH   6   7
ATOM      7  O   SER A   1      87.960  90.216  19.248  0.00  0.00    -0.380 OA
ATOM      8  H   SER A   1      88.434  89.815  20.019  0.00  0.00    +0.211 HD
ENDBRANCH   6   7
ENDBRANCH   1   6
TORSDOF 4
REMARK  Name = ../refined-set-2016/4ufj/4ufj_pocket.pdb
REMARK  134 active torsions:
REMARK  status: ('A' for Active; 'I' for Inactive)
REMARK    1  A    between atoms: _1  and  _3
REMARK    2  A    between atoms: _3  and  _4
REMARK    3  A    between atoms: _3  and  _6
REMARK    4  A    between atoms: _9  and  _11
REMARK    5  A    between atoms: _11  and  _12
REMARK    6  A    between atoms: _14  and  _16
REMARK    7  A    between atoms: _16  and  _17
REMARK    8  A    between atoms: _19  and  _21
REMARK    9  A    between atoms: _21  and  _22
REMARK   10  A    between atoms: _24  and  _26
REMARK   11  A    between atoms: _26  and  _27
REMARK   12  A    between atoms: _26  and  _29
REMARK   13  A    between atoms: _29  and  _30
REMARK   14  A    between atoms: _33  and  _35
REMARK   15  A    between atoms: _35  and  _36
REMARK   16  A    between atoms: _35  and  _38
REMARK   17  A    between atoms: _38  and  _39
REMARK   18  A    between atoms: _39  and  _40
REMARK   19  A    between atoms: _40  and  _41
REMARK   20  A    between atoms: _41  and  _42
REMARK   21  A    between atoms: _46  and  _48
REMARK   22  A    between atoms: _48  and  _49
REMARK   23  A    between atoms: _48  and  _51
REMARK   24  A    between atoms: _51  and  _52
REMARK   25  A    between atoms: _52  and  _53
REMARK   26  A    between atoms: _56  and  _58
REMARK   27  A    between atoms: _58  and  _59
REMARK   28  A    between atoms: _58  and  _61
REMARK   29  A    between atoms: _61  and  _62
REMARK   30  A    between atoms: _65  and  _67
REMARK   31  A    between atoms: _67  and  _68
REMARK   32  A    between atoms: _67  and  _70
REMARK   33  A    between atoms: _70  and  _71
REMARK   34  A    between atoms: _74  and  _76
REMARK   35  A    between atoms: _76  and  _77
REMARK   36  A    between atoms: _76  and  _79
REMARK   37  A    between atoms: _79  and  _80
REMARK   38  A    between atoms: _83  and  _85
REMARK   39  A    between atoms: _85  and  _86
REMARK   40  A    between atoms: _85  and  _88
REMARK   41  A    between atoms: _88  and  _89
REMARK   42  A    between atoms: _92  and  _94
REMARK   43  A    between atoms: _94  and  _95
REMARK   44  A    between atoms: _94  and  _97
REMARK   45  A    between atoms: _97  and  _98
REMARK   46  A    between atoms: _108  and  _110
REMARK   47  A    between atoms: _110  and  _111
REMARK   48  A    between atoms: _110  and  _113
REMARK   49  A    between atoms: _113  and  _114
REMARK   50  A    between atoms: _119  and  _121
REMARK   51  A    between atoms: _121  and  _122
REMARK   52  A    between atoms: _121  and  _124
REMARK   53  A    between atoms: _124  and  _125
REMARK   54  A    between atoms: _125  and  _126
REMARK   55  A    between atoms: _129  and  _131
REMARK   56  A    between atoms: _131  and  _132
REMARK   57  A    between atoms: _131  and  _134
REMARK   58  A    between atoms: _134  and  _135
REMARK   59  A    between atoms: _135  and  _136
REMARK   60  A    between atoms: _136  and  _137
REMARK   61  A    between atoms: _146  and  _148
REMARK   62  A    between atoms: _148  and  _149
REMARK   63  A    between atoms: _148  and  _151
REMARK   64  A    between atoms: _151  and  _152
REMARK   65  A    between atoms: _155  and  _157
REMARK   66  A    between atoms: _157  and  _158
REMARK   67  A    between atoms: _157  and  _160
REMARK   68  A    between atoms: _160  and  _161
REMARK   69  A    between atoms: _166  and  _168
REMARK   70  A    between atoms: _168  and  _169
REMARK   71  A    between atoms: _168  and  _171
REMARK   72  A    between atoms: _171  and  _172
REMARK   73  A    between atoms: _177  and  _178
REMARK   74  A    between atoms: _180  and  _182
REMARK   75  A    between atoms: _182  and  _183
REMARK   76  A    between atoms: _182  and  _185
REMARK   77  A    between atoms: _185  and  _186
REMARK   78  A    between atoms: _188  and  _190
REMARK   79  A    between atoms: _190  and  _191
REMARK   80  A    between atoms: _190  and  _193
REMARK   81  A    between atoms: _193  and  _194
REMARK   82  A    between atoms: _194  and  _195
REMARK   83  A    between atoms: _198  and  _200
REMARK   84  A    between atoms: _200  and  _201
REMARK   85  A    between atoms: _200  and  _203
REMARK   86  A    between atoms: _203  and  _204
REMARK   87  A    between atoms: _207  and  _209
REMARK   88  A    between atoms: _209  and  _210
REMARK   89  A    between atoms: _209  and  _212
REMARK   90  A    between atoms: _212  and  _213
REMARK   91  A    between atoms: _219  and  _221
REMARK   92  A    between atoms: _221  and  _222
REMARK   93  A    between atoms: _221  and  _224
REMARK   94  A    between atoms: _224  and  _225
REMARK   95  A    between atoms: _227  and  _229
REMARK   96  A    between atoms: _229  and  _230
REMARK   97  A    between atoms: _229  and  _232
REMARK   98  A    between atoms: _232  and  _233
REMARK   99  A    between atoms: _236  and  _238
REMARK  100  A    between atoms: _238  and  _239
REMARK  101  A    between atoms: _238  and  _241
REMARK  102  A    between atoms: _241  and  _242
REMARK  103  A    between atoms: _252  and  _254
REMARK  104  A    between atoms: _254  and  _255
REMARK  105  A    between atoms: _254  and  _257
REMARK  106  A    between atoms: _257  and  _258
REMARK  107  A    between atoms: _264  and  _265
REMARK  108  A    between atoms: _270  and  _272
REMARK  109  A    between atoms: _272  and  _273
REMARK  110  A    between atoms: _272  and  _275
REMARK  111  A    between atoms: _275  and  _276
REMARK  112  A    between atoms: _281  and  _282
REMARK  113  A    between atoms: _284  and  _286
REMARK  114  A    between atoms: _286  and  _287
REMARK  115  A    between atoms: _286  and  _289
REMARK  116  A    between atoms: _289  and  _290
REMARK  117  A    between atoms: _292  and  _294
REMARK  118  A    between atoms: _294  and  _295
REMARK  119  A    between atoms: _294  and  _297
REMARK  120  A    between atoms: _297  and  _298
REMARK  121  A    between atoms: _301  and  _303
REMARK  122  A    between atoms: _303  and  _304
REMARK  123  A    between atoms: _303  and  _306
REMARK  124  A    between atoms: _306  and  _307
REMARK  125  A    between atoms: _307  and  _308
REMARK  126  A    between atoms: _308  and  _309
REMARK  127  A    between atoms: _318  and  _320
REMARK  128  A    between atoms: _320  and  _321
REMARK  129  A    between atoms: _320  and  _323
REMARK  130  A    between atoms: _323  and  _324
REMARK  131  A    between atoms: _334  and  _336
REMARK  132  A    between atoms: _336  and  _337
REMARK  133  A    between atoms: _336  and  _339
REMARK  134  A    between atoms: _339  and  _340
REMARK                            x       y       z     vdW  Elec       q    Type
REMARK                         _______ _______ _______ _____ _____    ______ ____
ROOT
ATOM      1  CA  ARG A   2      82.191  88.437   9.581  0.00  0.00    +0.137 C 
ENDROOT
BRANCH   1   3
ATOM      2  C   ILE A   1      84.338  87.541  10.279  0.00  0.00    +0.238 C 
ATOM      3  N   ARG A   2      83.560  88.596  10.059  0.00  0.00    -0.298 N 
ATOM      4  H   ARG A   2      83.934  89.551  10.231  0.00  0.00    +0.150 HD
ATOM      5  O   ILE A   1      84.014  86.408   9.959  0.00  0.00    -0.274 OA
BRANCH   2   6
ATOM      6  CA  ILE A   1      85.687  87.794  10.942  0.00  0.00    +0.145 C 
BRANCH   6   7
ATOM      7  N   ILE A   1      86.147  89.158  10.738  0.00  0.00    -0.238 NA
ATOM      8  H   ILE A   1      86.107  89.848  11.515  0.00  0.00    +0.142 HD
ENDBRANCH   6   7
BRANCH   6   9
ATOM      9  CB  ILE A   1      85.574  87.445  12.432  0.00  0.00    +0.025 C 
ATOM     10  CG2 ILE A   1      86.947  87.394  13.066  0.00  0.00    +0.002 C 
BRANCH   9  11
ATOM     11  CG1 ILE A   1      84.690  88.461  13.148  0.00  0.00    +0.002 C 
ATOM     12  CD1 ILE A   1      84.027  87.899  14.367  0.00  0.00    +0.000 C 
ENDBRANCH   9  11
ENDBRANCH   6   9
ENDBRANCH   2   6
ENDBRANCH   1   3
BRANCH   1  13
ATOM     13  C   ARG A   2      81.757  89.616   8.710  0.00  0.00    +0.227 C 
ATOM     14  O   ARG A   2      81.471  90.688   9.224  0.00  0.00    -0.286 OA
ENDBRANCH   1  13
BRANCH   1  15
ATOM     15  CB  ARG A   2      81.245  88.281  10.775  0.00  0.00    +0.031 C 
BRANCH  15  16
ATOM     16  CG  ARG A   2      79.890  87.686  10.464  0.00  0.00    +0.045 C 
BRANCH  16  17
ATOM     17  CD  ARG A   2      79.004  87.633  11.715  0.00  0.00    +0.174 C 
BRANCH  17  18
ATOM     18  NE  ARG A   2      79.612  86.867  12.801  0.00  0.00    -0.265 N 
ATOM     19  CZ  ARG A   2      80.075  87.399  13.931  0.00  0.00    +0.342 C 
ATOM     20  NH2 ARG A   2      80.611  86.622  14.865  0.00  0.00    -0.292 N 
ATOM     21 HH21 ARG A   2      80.971  87.041  15.746  0.00  0.00    +0.255 HD
ATOM     22 HH22 ARG A   2      80.670  85.595  14.715  0.00  0.00    +0.255 HD
ATOM     23  NH1 ARG A   2      80.002  88.707  14.133  0.00  0.00    -0.292 N 
ATOM     24 HH11 ARG A   2      80.365  89.118  15.017  0.00  0.00    +0.255 HD
ATOM     25 HH12 ARG A   2      79.582  89.323  13.408  0.00  0.00    +0.255 HD
ATOM     26  HE  ARG A   2      79.688  85.836  12.684  0.00  0.00    +0.259 HD
ENDBRANCH  17  18
ENDBRANCH  16  17
ENDBRANCH  15  16
ENDBRANCH   1  15
TORSDOF 10
REMARK  Name = ../refined-set-2016/4ufj/4ufj_pocket.pdb
REMARK  134 active torsions:
REMARK  status: ('A' for Active; 'I' for Inactive)
REMARK    1  A    between atoms: _1  and  _3
REMARK    2  A    between atoms: _3  and  _4
REMARK    3  A    between atoms: _3  and  _6
REMARK    4  A    between atoms: _9  and  _11
REMARK    5  A    between atoms: _11  and  _12
REMARK    6  A    between atoms: _14  and  _16
REMARK    7  A    between atoms: _16  and  _17
REMARK    8  A    between atoms: _19  and  _21
REMARK    9  A    between atoms: _21  and  _22
REMARK   10  A    between atoms: _24  and  _26
REMARK   11  A    between atoms: _26  and  _27
REMARK   12  A    between atoms: _26  and  _29
REMARK   13  A    between atoms: _29  and  _30
REMARK   14  A    between atoms: _33  and  _35
REMARK   15  A    between atoms: _35  and  _36
REMARK   16  A    between atoms: _35  and  _38
REMARK   17  A    between atoms: _38  and  _39
REMARK   18  A    between atoms: _39  and  _40
REMARK   19  A    between atoms: _40  and  _41
REMARK   20  A    between atoms: _41  and  _42
REMARK   21  A    between atoms: _46  and  _48
REMARK   22  A    between atoms: _48  and  _49
REMARK   23  A    between atoms: _48  and  _51
REMARK   24  A    between atoms: _51  and  _52
REMARK   25  A    between atoms: _52  and  _53
REMARK   26  A    between atoms: _56  and  _58
REMARK   27  A    between atoms: _58  and  _59
REMARK   28  A    between atoms: _58  and  _61
REMARK   29  A    between atoms: _61  and  _62
REMARK   30  A    between atoms: _65  and  _67
REMARK   31  A    between atoms: _67  and  _68
REMARK   32  A    between atoms: _67  and  _70
REMARK   33  A    between atoms: _70  and  _71
REMARK   34  A    between atoms: _74  and  _76
REMARK   35  A    between atoms: _76  and  _77
REMARK   36  A    between atoms: _76  and  _79
REMARK   37  A    between atoms: _79  and  _80
REMARK   38  A    between atoms: _83  and  _85
REMARK   39  A    between atoms: _85  and  _86
REMARK   40  A    between atoms: _85  and  _88
REMARK   41  A    between atoms: _88  and  _89
REMARK   42  A    between atoms: _92  and  _94
REMARK   43  A    between atoms: _94  and  _95
REMARK   44  A    between atoms: _94  and  _97
REMARK   45  A    between atoms: _97  and  _98
REMARK   46  A    between atoms: _108  and  _110
REMARK   47  A    between atoms: _110  and  _111
REMARK   48  A    between atoms: _110  and  _113
REMARK   49  A    between atoms: _113  and  _114
REMARK   50  A    between atoms: _119  and  _121
REMARK   51  A    between atoms: _121  and  _122
REMARK   52  A    between atoms: _121  and  _124
REMARK   53  A    between atoms: _124  and  _125
REMARK   54  A    between atoms: _125  and  _126
REMARK   55  A    between atoms: _129  and  _131
REMARK   56  A    between atoms: _131  and  _132
REMARK   57  A    between atoms: _131  and  _134
REMARK   58  A    between atoms: _134  and  _135
REMARK   59  A    between atoms: _135  and  _136
REMARK   60  A    between atoms: _136  and  _137
REMARK   61  A    between atoms: _146  and  _148
REMARK   62  A    between atoms: _148  and  _149
REMARK   63  A    between atoms: _148  and  _151
REMARK   64  A    between atoms: _151  and  _152
REMARK   65  A    between atoms: _155  and  _157
REMARK   66  A    between atoms: _157  and  _158
REMARK   67  A    between atoms: _157  and  _160
REMARK   68  A    between atoms: _160  and  _161
REMARK   69  A    between atoms: _166  and  _168
REMARK   70  A    between atoms: _168  and  _169
REMARK   71  A    between atoms: _168  and  _171
REMARK   72  A    between atoms: _171  and  _172
REMARK   73  A    between atoms: _177  and  _178
REMARK   74  A    between atoms: _180  and  _182
REMARK   75  A    between atoms: _182  and  _183
REMARK   76  A    between atoms: _182  and  _185
REMARK   77  A    between atoms: _185  and  _186
REMARK   78  A    between atoms: _188  and  _190
REMARK   79  A    between atoms: _190  and  _191
REMARK   80  A    between atoms: _190  and  _193
REMARK   81  A    between atoms: _193  and  _194
REMARK   82  A    between atoms: _194  and  _195
REMARK   83  A    between atoms: _198  and  _200
REMARK   84  A    between atoms: _200  and  _201
REMARK   85  A    between atoms: _200  and  _203
REMARK   86  A    between atoms: _203  and  _204
REMARK   87  A    between atoms: _207  and  _209
REMARK   88  A    between atoms: _209  and  _210
REMARK   89  A    between atoms: _209  and  _212
REMARK   90  A    between atoms: _212  and  _213
REMARK   91  A    between atoms: _219  and  _221
REMARK   92  A    between atoms: _221  and  _222
REMARK   93  A    between atoms: _221  and  _224
REMARK   94  A    between atoms: _224  and  _225
REMARK   95  A    between atoms: _227  and  _229
REMARK   96  A    between atoms: _229  and  _230
REMARK   97  A    between atoms: _229  and  _232
REMARK   98  A    between atoms: _232  and  _233
REMARK   99  A    between atoms: _236  and  _238
REMARK  100  A    between atoms: _238  and  _239
REMARK  101  A    between atoms: _238  and  _241
REMARK  102  A    between atoms: _241  and  _242
REMARK  103  A    between atoms: _252  and  _254
REMARK  104  A    between atoms: _254  and  _255
REMARK  105  A    between atoms: _254  and  _257
REMARK  106  A    between atoms: _257  and  _258
REMARK  107  A    between atoms: _264  and  _265
REMARK  108  A    between atoms: _270  and  _272
REMARK  109  A    between atoms: _272  and  _273
REMARK  110  A    between atoms: _272  and  _275
REMARK  111  A    between atoms: _275  and  _276
REMARK  112  A    between atoms: _281  and  _282
REMARK  113  A    between atoms: _284  and  _286
REMARK  114  A    between atoms: _286  and  _287
REMARK  115  A    between atoms: _286  and  _289
REMARK  116  A    between atoms: _289  and  _290
REMARK  117  A    between atoms: _292  and  _294
REMARK  118  A    between atoms: _294  and  _295
REMARK  119  A    between atoms: _294  and  _297
REMARK  120  A    between atoms: _297  and  _298
REMARK  121  A    between atoms: _301  and  _303
REMARK  122  A    between atoms: _303  and  _304
REMARK  123  A    between atoms: _303  and  _306
REMARK  124  A    between atoms: _306  and  _307
REMARK  125  A    between atoms: _307  and  _308
REMARK  126  A    between atoms: _308  and  _309
REMARK  127  A    between atoms: _318  and  _320
REMARK  128  A    between atoms: _320  and  _321
REMARK  129  A    between atoms: _320  and  _323
REMARK  130  A    between atoms: _323  and  _324
REMARK  131  A    between atoms: _334  and  _336
REMARK  132  A    between atoms: _336  and  _337
REMARK  133  A    between atoms: _336  and  _339
REMARK  134  A    between atoms: _339  and  _340
REMARK                            x       y       z     vdW  Elec       q    Type
REMARK                         _______ _______ _______ _____ _____    ______ ____
ROOT
ATOM      1  CG  TRP A   1      71.642  86.765  23.592  0.00  0.00    -0.002 A 
ATOM      2  CD2 TRP A   1      72.946  86.628  23.019  0.00  0.00    +0.013 A 
ATOM      3  CE3 TRP A   1      74.145  86.059  23.459  0.00  0.00    +0.001 A 
ATOM      4  CZ3 TRP A   1      75.247  86.102  22.623  0.00  0.00    +0.000 A 
ATOM      5  CH2 TRP A   1      75.171  86.700  21.355  0.00  0.00    +0.001 A 
ATOM      6  CZ2 TRP A   1      74.012  87.266  20.900  0.00  0.00    +0.017 A 
ATOM      7  CE2 TRP A   1      72.905  87.226  21.743  0.00  0.00    +0.056 A 
ATOM      8  NE1 TRP A   1      71.637  87.707  21.558  0.00  0.00    -0.352 N 
ATOM      9  HE1 TRP A   1      71.299  88.207  20.711  0.00  0.00    +0.166 HD
ATOM     10  CD1 TRP A   1      70.886  87.425  22.664  0.00  0.00    +0.068 A 
ENDROOT
BRANCH   1  11
ATOM     11  CB  TRP A   1      71.197  86.291  24.939  0.00  0.00    +0.053 C 
BRANCH  11  12
ATOM     12  CA  TRP A   1      70.443  84.960  24.899  0.00  0.00    +0.137 C 
BRANCH  12  13
ATOM     13  N   TRP A   1      69.955  84.596  26.220  0.00  0.00    -0.239 NA
ATOM     14  H   TRP A   1      70.569  84.778  27.039  0.00  0.00    +0.142 HD
ENDBRANCH  12  13
BRANCH  12  15
ATOM     15  C   TRP A   1      71.356  83.844  24.431  0.00  0.00    +0.224 C 
ATOM     16  O   TRP A   1      71.160  83.264  23.366  0.00  0.00    -0.287 OA
ENDBRANCH  12  15
ENDBRANCH  11  12
ENDBRANCH   1  11
TORSDOF 4
REMARK  Name = ../refined-set-2016/4ufj/4ufj_pocket.pdb
REMARK  134 active torsions:
REMARK  status: ('A' for Active; 'I' for Inactive)
REMARK    1  A    between atoms: _1  and  _3
REMARK    2  A    between atoms: _3  and  _4
REMARK    3  A    between atoms: _3  and  _6
REMARK    4  A    between atoms: _9  and  _11
REMARK    5  A    between atoms: _11  and  _12
REMARK    6  A    between atoms: _14  and  _16
REMARK    7  A    between atoms: _16  and  _17
REMARK    8  A    between atoms: _19  and  _21
REMARK    9  A    between atoms: _21  and  _22
REMARK   10  A    between atoms: _24  and  _26
REMARK   11  A    between atoms: _26  and  _27
REMARK   12  A    between atoms: _26  and  _29
REMARK   13  A    between atoms: _29  and  _30
REMARK   14  A    between atoms: _33  and  _35
REMARK   15  A    between atoms: _35  and  _36
REMARK   16  A    between atoms: _35  and  _38
REMARK   17  A    between atoms: _38  and  _39
REMARK   18  A    between atoms: _39  and  _40
REMARK   19  A    between atoms: _40  and  _41
REMARK   20  A    between atoms: _41  and  _42
REMARK   21  A    between atoms: _46  and  _48
REMARK   22  A    between atoms: _48  and  _49
REMARK   23  A    between atoms: _48  and  _51
REMARK   24  A    between atoms: _51  and  _52
REMARK   25  A    between atoms: _52  and  _53
REMARK   26  A    between atoms: _56  and  _58
REMARK   27  A    between atoms: _58  and  _59
REMARK   28  A    between atoms: _58  and  _61
REMARK   29  A    between atoms: _61  and  _62
REMARK   30  A    between atoms: _65  and  _67
REMARK   31  A    between atoms: _67  and  _68
REMARK   32  A    between atoms: _67  and  _70
REMARK   33  A    between atoms: _70  and  _71
REMARK   34  A    between atoms: _74  and  _76
REMARK   35  A    between atoms: _76  and  _77
REMARK   36  A    between atoms: _76  and  _79
REMARK   37  A    between atoms: _79  and  _80
REMARK   38  A    between atoms: _83  and  _85
REMARK   39  A    between atoms: _85  and  _86
REMARK   40  A    between atoms: _85  and  _88
REMARK   41  A    between atoms: _88  and  _89
REMARK   42  A    between atoms: _92  and  _94
REMARK   43  A    between atoms: _94  and  _95
REMARK   44  A    between atoms: _94  and  _97
REMARK   45  A    between atoms: _97  and  _98
REMARK   46  A    between atoms: _108  and  _110
REMARK   47  A    between atoms: _110  and  _111
REMARK   48  A    between atoms: _110  and  _113
REMARK   49  A    between atoms: _113  and  _114
REMARK   50  A    between atoms: _119  and  _121
REMARK   51  A    between atoms: _121  and  _122
REMARK   52  A    between atoms: _121  and  _124
REMARK   53  A    between atoms: _124  and  _125
REMARK   54  A    between atoms: _125  and  _126
REMARK   55  A    between atoms: _129  and  _131
REMARK   56  A    between atoms: _131  and  _132
REMARK   57  A    between atoms: _131  and  _134
REMARK   58  A    between atoms: _134  and  _135
REMARK   59  A    between atoms: _135  and  _136
REMARK   60  A    between atoms: _136  and  _137
REMARK   61  A    between atoms: _146  and  _148
REMARK   62  A    between atoms: _148  and  _149
REMARK   63  A    between atoms: _148  and  _151
REMARK   64  A    between atoms: _151  and  _152
REMARK   65  A    between atoms: _155  and  _157
REMARK   66  A    between atoms: _157  and  _158
REMARK   67  A    between atoms: _157  and  _160
REMARK   68  A    between atoms: _160  and  _161
REMARK   69  A    between atoms: _166  and  _168
REMARK   70  A    between atoms: _168  and  _169
REMARK   71  A    between atoms: _168  and  _171
REMARK   72  A    between atoms: _171  and  _172
REMARK   73  A    between atoms: _177  and  _178
REMARK   74  A    between atoms: _180  and  _182
REMARK   75  A    between atoms: _182  and  _183
REMARK   76  A    between atoms: _182  and  _185
REMARK   77  A    between atoms: _185  and  _186
REMARK   78  A    between atoms: _188  and  _190
REMARK   79  A    between atoms: _190  and  _191
REMARK   80  A    between atoms: _190  and  _193
REMARK   81  A    between atoms: _193  and  _194
REMARK   82  A    between atoms: _194  and  _195
REMARK   83  A    between atoms: _198  and  _200
REMARK   84  A    between atoms: _200  and  _201
REMARK   85  A    between atoms: _200  and  _203
REMARK   86  A    between atoms: _203  and  _204
REMARK   87  A    between atoms: _207  and  _209
REMARK   88  A    between atoms: _209  and  _210
REMARK   89  A    between atoms: _209  and  _212
REMARK   90  A    between atoms: _212  and  _213
REMARK   91  A    between atoms: _219  and  _221
REMARK   92  A    between atoms: _221  and  _222
REMARK   93  A    between atoms: _221  and  _224
REMARK   94  A    between atoms: _224  and  _225
REMARK   95  A    between atoms: _227  and  _229
REMARK   96  A    between atoms: _229  and  _230
REMARK   97  A    between atoms: _229  and  _232
REMARK   98  A    between atoms: _232  and  _233
REMARK   99  A    between atoms: _236  and  _238
REMARK  100  A    between atoms: _238  and  _239
REMARK  101  A    between atoms: _238  and  _241
REMARK  102  A    between atoms: _241  and  _242
REMARK  103  A    between atoms: _252  and  _254
REMARK  104  A    between atoms: _254  and  _255
REMARK  105  A    between atoms: _254  and  _257
REMARK  106  A    between atoms: _257  and  _258
REMARK  107  A    between atoms: _264  and  _265
REMARK  108  A    between atoms: _270  and  _272
REMARK  109  A    between atoms: _272  and  _273
REMARK  110  A    between atoms: _272  and  _275
REMARK  111  A    between atoms: _275  and  _276
REMARK  112  A    between atoms: _281  and  _282
REMARK  113  A    between atoms: _284  and  _286
REMARK  114  A    between atoms: _286  and  _287
REMARK  115  A    between atoms: _286  and  _289
REMARK  116  A    between atoms: _289  and  _290
REMARK  117  A    between atoms: _292  and  _294
REMARK  118  A    between atoms: _294  and  _295
REMARK  119  A    between atoms: _294  and  _297
REMARK  120  A    between atoms: _297  and  _298
REMARK  121  A    between atoms: _301  and  _303
REMARK  122  A    between atoms: _303  and  _304
REMARK  123  A    between atoms: _303  and  _306
REMARK  124  A    between atoms: _306  and  _307
REMARK  125  A    between atoms: _307  and  _308
REMARK  126  A    between atoms: _308  and  _309
REMARK  127  A    between atoms: _318  and  _320
REMARK  128  A    between atoms: _320  and  _321
REMARK  129  A    between atoms: _320  and  _323
REMARK  130  A    between atoms: _323  and  _324
REMARK  131  A    between atoms: _334  and  _336
REMARK  132  A    between atoms: _336  and  _337
REMARK  133  A    between atoms: _336  and  _339
REMARK  134  A    between atoms: _339  and  _340
REMARK                            x       y       z     vdW  Elec       q    Type
REMARK                         _______ _______ _______ _____ _____    ______ ____
ROOT
ATOM      1  CA  ILE A   1      79.169  81.901  25.151  0.00  0.00    +0.133 C 
ENDROOT
BRANCH   1   2
ATOM      2  N   ILE A   1      80.163  82.558  25.980  0.00  0.00    -0.239 NA
ATOM      3  H   ILE A   1      80.837  83.217  25.540  0.00  0.00    +0.142 HD
ENDBRANCH   1   2
BRANCH   1   4
ATOM      4  C   ILE A   1      79.343  80.380  25.220  0.00  0.00    +0.224 C 
ATOM      5  O   ILE A   1      78.390  79.632  25.053  0.00  0.00    -0.287 OA
ENDBRANCH   1   4
BRANCH   1   6
ATOM      6  CB  ILE A   1      79.254  82.417  23.698  0.00  0.00    +0.023 C 
ATOM      7  CG2 ILE A   1      80.281  81.645  22.888  0.00  0.00    +0.002 C 
BRANCH   6   8
ATOM      8  CG1 ILE A   1      77.879  82.414  23.038  0.00  0.00    +0.002 C 
ATOM      9  CD1 ILE A   1      77.800  83.337  21.845  0.00  0.00    +0.000 C 
ENDBRANCH   6   8
ENDBRANCH   1   6
TORSDOF 4
REMARK  Name = ../refined-set-2016/4ufj/4ufj_pocket.pdb
REMARK  134 active torsions:
REMARK  status: ('A' for Active; 'I' for Inactive)
REMARK    1  A    between atoms: _1  and  _3
REMARK    2  A    between atoms: _3  and  _4
REMARK    3  A    between atoms: _3  and  _6
REMARK    4  A    between atoms: _9  and  _11
REMARK    5  A    between atoms: _11  and  _12
REMARK    6  A    between atoms: _14  and  _16
REMARK    7  A    between atoms: _16  and  _17
REMARK    8  A    between atoms: _19  and  _21
REMARK    9  A    between atoms: _21  and  _22
REMARK   10  A    between atoms: _24  and  _26
REMARK   11  A    between atoms: _26  and  _27
REMARK   12  A    between atoms: _26  and  _29
REMARK   13  A    between atoms: _29  and  _30
REMARK   14  A    between atoms: _33  and  _35
REMARK   15  A    between atoms: _35  and  _36
REMARK   16  A    between atoms: _35  and  _38
REMARK   17  A    between atoms: _38  and  _39
REMARK   18  A    between atoms: _39  and  _40
REMARK   19  A    between atoms: _40  and  _41
REMARK   20  A    between atoms: _41  and  _42
REMARK   21  A    between atoms: _46  and  _48
REMARK   22  A    between atoms: _48  and  _49
REMARK   23  A    between atoms: _48  and  _51
REMARK   24  A    between atoms: _51  and  _52
REMARK   25  A    between atoms: _52  and  _53
REMARK   26  A    between atoms: _56  and  _58
REMARK   27  A    between atoms: _58  and  _59
REMARK   28  A    between atoms: _58  and  _61
REMARK   29  A    between atoms: _61  and  _62
REMARK   30  A    between atoms: _65  and  _67
REMARK   31  A    between atoms: _67  and  _68
REMARK   32  A    between atoms: _67  and  _70
REMARK   33  A    between atoms: _70  and  _71
REMARK   34  A    between atoms: _74  and  _76
REMARK   35  A    between atoms: _76  and  _77
REMARK   36  A    between atoms: _76  and  _79
REMARK   37  A    between atoms: _79  and  _80
REMARK   38  A    between atoms: _83  and  _85
REMARK   39  A    between atoms: _85  and  _86
REMARK   40  A    between atoms: _85  and  _88
REMARK   41  A    between atoms: _88  and  _89
REMARK   42  A    between atoms: _92  and  _94
REMARK   43  A    between atoms: _94  and  _95
REMARK   44  A    between atoms: _94  and  _97
REMARK   45  A    between atoms: _97  and  _98
REMARK   46  A    between atoms: _108  and  _110
REMARK   47  A    between atoms: _110  and  _111
REMARK   48  A    between atoms: _110  and  _113
REMARK   49  A    between atoms: _113  and  _114
REMARK   50  A    between atoms: _119  and  _121
REMARK   51  A    between atoms: _121  and  _122
REMARK   52  A    between atoms: _121  and  _124
REMARK   53  A    between atoms: _124  and  _125
REMARK   54  A    between atoms: _125  and  _126
REMARK   55  A    between atoms: _129  and  _131
REMARK   56  A    between atoms: _131  and  _132
REMARK   57  A    between atoms: _131  and  _134
REMARK   58  A    between atoms: _134  and  _135
REMARK   59  A    between atoms: _135  and  _136
REMARK   60  A    between atoms: _136  and  _137
REMARK   61  A    between atoms: _146  and  _148
REMARK   62  A    between atoms: _148  and  _149
REMARK   63  A    between atoms: _148  and  _151
REMARK   64  A    between atoms: _151  and  _152
REMARK   65  A    between atoms: _155  and  _157
REMARK   66  A    between atoms: _157  and  _158
REMARK   67  A    between atoms: _157  and  _160
REMARK   68  A    between atoms: _160  and  _161
REMARK   69  A    between atoms: _166  and  _168
REMARK   70  A    between atoms: _168  and  _169
REMARK   71  A    between atoms: _168  and  _171
REMARK   72  A    between atoms: _171  and  _172
REMARK   73  A    between atoms: _177  and  _178
REMARK   74  A    between atoms: _180  and  _182
REMARK   75  A    between atoms: _182  and  _183
REMARK   76  A    between atoms: _182  and  _185
REMARK   77  A    between atoms: _185  and  _186
REMARK   78  A    between atoms: _188  and  _190
REMARK   79  A    between atoms: _190  and  _191
REMARK   80  A    between atoms: _190  and  _193
REMARK   81  A    between atoms: _193  and  _194
REMARK   82  A    between atoms: _194  and  _195
REMARK   83  A    between atoms: _198  and  _200
REMARK   84  A    between atoms: _200  and  _201
REMARK   85  A    between atoms: _200  and  _203
REMARK   86  A    between atoms: _203  and  _204
REMARK   87  A    between atoms: _207  and  _209
REMARK   88  A    between atoms: _209  and  _210
REMARK   89  A    between atoms: _209  and  _212
REMARK   90  A    between atoms: _212  and  _213
REMARK   91  A    between atoms: _219  and  _221
REMARK   92  A    between atoms: _221  and  _222
REMARK   93  A    between atoms: _221  and  _224
REMARK   94  A    between atoms: _224  and  _225
REMARK   95  A    between atoms: _227  and  _229
REMARK   96  A    between atoms: _229  and  _230
REMARK   97  A    between atoms: _229  and  _232
REMARK   98  A    between atoms: _232  and  _233
REMARK   99  A    between atoms: _236  and  _238
REMARK  100  A    between atoms: _238  and  _239
REMARK  101  A    between atoms: _238  and  _241
REMARK  102  A    between atoms: _241  and  _242
REMARK  103  A    between atoms: _252  and  _254
REMARK  104  A    between atoms: _254  and  _255
REMARK  105  A    between atoms: _254  and  _257
REMARK  106  A    between atoms: _257  and  _258
REMARK  107  A    between atoms: _264  and  _265
REMARK  108  A    between atoms: _270  and  _272
REMARK  109  A    between atoms: _272  and  _273
REMARK  110  A    between atoms: _272  and  _275
REMARK  111  A    between atoms: _275  and  _276
REMARK  112  A    between atoms: _281  and  _282
REMARK  113  A    between atoms: _284  and  _286
REMARK  114  A    between atoms: _286  and  _287
REMARK  115  A    between atoms: _286  and  _289
REMARK  116  A    between atoms: _289  and  _290
REMARK  117  A    between atoms: _292  and  _294
REMARK  118  A    between atoms: _294  and  _295
REMARK  119  A    between atoms: _294  and  _297
REMARK  120  A    between atoms: _297  and  _298
REMARK  121  A    between atoms: _301  and  _303
REMARK  122  A    between atoms: _303  and  _304
REMARK  123  A    between atoms: _303  and  _306
REMARK  124  A    between atoms: _306  and  _307
REMARK  125  A    between atoms: _307  and  _308
REMARK  126  A    between atoms: _308  and  _309
REMARK  127  A    between atoms: _318  and  _320
REMARK  128  A    between atoms: _320  and  _321
REMARK  129  A    between atoms: _320  and  _323
REMARK  130  A    between atoms: _323  and  _324
REMARK  131  A    between atoms: _334  and  _336
REMARK  132  A    between atoms: _336  and  _337
REMARK  133  A    between atoms: _336  and  _339
REMARK  134  A    between atoms: _339  and  _340
REMARK                            x       y       z     vdW  Elec       q    Type
REMARK                         _______ _______ _______ _____ _____    ______ ____
ROOT
ATOM      1  O   HOH     1      74.438  95.203  19.366  0.00  0.00    +0.000 OA
ENDROOT
TORSDOF 0
REMARK  Name = ../refined-set-2016/4ufj/4ufj_pocket.pdb
REMARK  134 active torsions:
REMARK  status: ('A' for Active; 'I' for Inactive)
REMARK    1  A    between atoms: _1  and  _3
REMARK    2  A    between atoms: _3  and  _4
REMARK    3  A    between atoms: _3  and  _6
REMARK    4  A    between atoms: _9  and  _11
REMARK    5  A    between atoms: _11  and  _12
REMARK    6  A    between atoms: _14  and  _16
REMARK    7  A    between atoms: _16  and  _17
REMARK    8  A    between atoms: _19  and  _21
REMARK    9  A    between atoms: _21  and  _22
REMARK   10  A    between atoms: _24  and  _26
REMARK   11  A    between atoms: _26  and  _27
REMARK   12  A    between atoms: _26  and  _29
REMARK   13  A    between atoms: _29  and  _30
REMARK   14  A    between atoms: _33  and  _35
REMARK   15  A    between atoms: _35  and  _36
REMARK   16  A    between atoms: _35  and  _38
REMARK   17  A    between atoms: _38  and  _39
REMARK   18  A    between atoms: _39  and  _40
REMARK   19  A    between atoms: _40  and  _41
REMARK   20  A    between atoms: _41  and  _42
REMARK   21  A    between atoms: _46  and  _48
REMARK   22  A    between atoms: _48  and  _49
REMARK   23  A    between atoms: _48  and  _51
REMARK   24  A    between atoms: _51  and  _52
REMARK   25  A    between atoms: _52  and  _53
REMARK   26  A    between atoms: _56  and  _58
REMARK   27  A    between atoms: _58  and  _59
REMARK   28  A    between atoms: _58  and  _61
REMARK   29  A    between atoms: _61  and  _62
REMARK   30  A    between atoms: _65  and  _67
REMARK   31  A    between atoms: _67  and  _68
REMARK   32  A    between atoms: _67  and  _70
REMARK   33  A    between atoms: _70  and  _71
REMARK   34  A    between atoms: _74  and  _76
REMARK   35  A    between atoms: _76  and  _77
REMARK   36  A    between atoms: _76  and  _79
REMARK   37  A    between atoms: _79  and  _80
REMARK   38  A    between atoms: _83  and  _85
REMARK   39  A    between atoms: _85  and  _86
REMARK   40  A    between atoms: _85  and  _88
REMARK   41  A    between atoms: _88  and  _89
REMARK   42  A    between atoms: _92  and  _94
REMARK   43  A    between atoms: _94  and  _95
REMARK   44  A    between atoms: _94  and  _97
REMARK   45  A    between atoms: _97  and  _98
REMARK   46  A    between atoms: _108  and  _110
REMARK   47  A    between atoms: _110  and  _111
REMARK   48  A    between atoms: _110  and  _113
REMARK   49  A    between atoms: _113  and  _114
REMARK   50  A    between atoms: _119  and  _121
REMARK   51  A    between atoms: _121  and  _122
REMARK   52  A    between atoms: _121  and  _124
REMARK   53  A    between atoms: _124  and  _125
REMARK   54  A    between atoms: _125  and  _126
REMARK   55  A    between atoms: _129  and  _131
REMARK   56  A    between atoms: _131  and  _132
REMARK   57  A    between atoms: _131  and  _134
REMARK   58  A    between atoms: _134  and  _135
REMARK   59  A    between atoms: _135  and  _136
REMARK   60  A    between atoms: _136  and  _137
REMARK   61  A    between atoms: _146  and  _148
REMARK   62  A    between atoms: _148  and  _149
REMARK   63  A    between atoms: _148  and  _151
REMARK   64  A    between atoms: _151  and  _152
REMARK   65  A    between atoms: _155  and  _157
REMARK   66  A    between atoms: _157  and  _158
REMARK   67  A    between atoms: _157  and  _160
REMARK   68  A    between atoms: _160  and  _161
REMARK   69  A    between atoms: _166  and  _168
REMARK   70  A    between atoms: _168  and  _169
REMARK   71  A    between atoms: _168  and  _171
REMARK   72  A    between atoms: _171  and  _172
REMARK   73  A    between atoms: _177  and  _178
REMARK   74  A    between atoms: _180  and  _182
REMARK   75  A    between atoms: _182  and  _183
REMARK   76  A    between atoms: _182  and  _185
REMARK   77  A    between atoms: _185  and  _186
REMARK   78  A    between atoms: _188  and  _190
REMARK   79  A    between atoms: _190  and  _191
REMARK   80  A    between atoms: _190  and  _193
REMARK   81  A    between atoms: _193  and  _194
REMARK   82  A    between atoms: _194  and  _195
REMARK   83  A    between atoms: _198  and  _200
REMARK   84  A    between atoms: _200  and  _201
REMARK   85  A    between atoms: _200  and  _203
REMARK   86  A    between atoms: _203  and  _204
REMARK   87  A    between atoms: _207  and  _209
REMARK   88  A    between atoms: _209  and  _210
REMARK   89  A    between atoms: _209  and  _212
REMARK   90  A    between atoms: _212  and  _213
REMARK   91  A    between atoms: _219  and  _221
REMARK   92  A    between atoms: _221  and  _222
REMARK   93  A    between atoms: _221  and  _224
REMARK   94  A    between atoms: _224  and  _225
REMARK   95  A    between atoms: _227  and  _229
REMARK   96  A    between atoms: _229  and  _230
REMARK   97  A    between atoms: _229  and  _232
REMARK   98  A    between atoms: _232  and  _233
REMARK   99  A    between atoms: _236  and  _238
REMARK  100  A    between atoms: _238  and  _239
REMARK  101  A    between atoms: _238  and  _241
REMARK  102  A    between atoms: _241  and  _242
REMARK  103  A    between atoms: _252  and  _254
REMARK  104  A    between atoms: _254  and  _255
REMARK  105  A    between atoms: _254  and  _257
REMARK  106  A    between atoms: _257  and  _258
REMARK  107  A    between atoms: _264  and  _265
REMARK  108  A    between atoms: _270  and  _272
REMARK  109  A    between atoms: _272  and  _273
REMARK  110  A    between atoms: _272  and  _275
REMARK  111  A    between atoms: _275  and  _276
REMARK  112  A    between atoms: _281  and  _282
REMARK  113  A    between atoms: _284  and  _286
REMARK  114  A    between atoms: _286  and  _287
REMARK  115  A    between atoms: _286  and  _289
REMARK  116  A    between atoms: _289  and  _290
REMARK  117  A    between atoms: _292  and  _294
REMARK  118  A    between atoms: _294  and  _295
REMARK  119  A    between atoms: _294  and  _297
REMARK  120  A    between atoms: _297  and  _298
REMARK  121  A    between atoms: _301  and  _303
REMARK  122  A    between atoms: _303  and  _304
REMARK  123  A    between atoms: _303  and  _306
REMARK  124  A    between atoms: _306  and  _307
REMARK  125  A    between atoms: _307  and  _308
REMARK  126  A    between atoms: _308  and  _309
REMARK  127  A    between atoms: _318  and  _320
REMARK  128  A    between atoms: _320  and  _321
REMARK  129  A    between atoms: _320  and  _323
REMARK  130  A    between atoms: _323  and  _324
REMARK  131  A    between atoms: _334  and  _336
REMARK  132  A    between atoms: _336  and  _337
REMARK  133  A    between atoms: _336  and  _339
REMARK  134  A    between atoms: _339  and  _340
REMARK                            x       y       z     vdW  Elec       q    Type
REMARK                         _______ _______ _______ _____ _____    ______ ____
ROOT
ATOM      1  O   HOH     1      73.369  85.718  17.915  0.00  0.00    +0.000 OA
ENDROOT
TORSDOF 0
REMARK  Name = ../refined-set-2016/4ufj/4ufj_pocket.pdb
REMARK  134 active torsions:
REMARK  status: ('A' for Active; 'I' for Inactive)
REMARK    1  A    between atoms: _1  and  _3
REMARK    2  A    between atoms: _3  and  _4
REMARK    3  A    between atoms: _3  and  _6
REMARK    4  A    between atoms: _9  and  _11
REMARK    5  A    between atoms: _11  and  _12
REMARK    6  A    between atoms: _14  and  _16
REMARK    7  A    between atoms: _16  and  _17
REMARK    8  A    between atoms: _19  and  _21
REMARK    9  A    between atoms: _21  and  _22
REMARK   10  A    between atoms: _24  and  _26
REMARK   11  A    between atoms: _26  and  _27
REMARK   12  A    between atoms: _26  and  _29
REMARK   13  A    between atoms: _29  and  _30
REMARK   14  A    between atoms: _33  and  _35
REMARK   15  A    between atoms: _35  and  _36
REMARK   16  A    between atoms: _35  and  _38
REMARK   17  A    between atoms: _38  and  _39
REMARK   18  A    between atoms: _39  and  _40
REMARK   19  A    between atoms: _40  and  _41
REMARK   20  A    between atoms: _41  and  _42
REMARK   21  A    between atoms: _46  and  _48
REMARK   22  A    between atoms: _48  and  _49
REMARK   23  A    between atoms: _48  and  _51
REMARK   24  A    between atoms: _51  and  _52
REMARK   25  A    between atoms: _52  and  _53
REMARK   26  A    between atoms: _56  and  _58
REMARK   27  A    between atoms: _58  and  _59
REMARK   28  A    between atoms: _58  and  _61
REMARK   29  A    between atoms: _61  and  _62
REMARK   30  A    between atoms: _65  and  _67
REMARK   31  A    between atoms: _67  and  _68
REMARK   32  A    between atoms: _67  and  _70
REMARK   33  A    between atoms: _70  and  _71
REMARK   34  A    between atoms: _74  and  _76
REMARK   35  A    between atoms: _76  and  _77
REMARK   36  A    between atoms: _76  and  _79
REMARK   37  A    between atoms: _79  and  _80
REMARK   38  A    between atoms: _83  and  _85
REMARK   39  A    between atoms: _85  and  _86
REMARK   40  A    between atoms: _85  and  _88
REMARK   41  A    between atoms: _88  and  _89
REMARK   42  A    between atoms: _92  and  _94
REMARK   43  A    between atoms: _94  and  _95
REMARK   44  A    between atoms: _94  and  _97
REMARK   45  A    between atoms: _97  and  _98
REMARK   46  A    between atoms: _108  and  _110
REMARK   47  A    between atoms: _110  and  _111
REMARK   48  A    between atoms: _110  and  _113
REMARK   49  A    between atoms: _113  and  _114
REMARK   50  A    between atoms: _119  and  _121
REMARK   51  A    between atoms: _121  and  _122
REMARK   52  A    between atoms: _121  and  _124
REMARK   53  A    between atoms: _124  and  _125
REMARK   54  A    between atoms: _125  and  _126
REMARK   55  A    between atoms: _129  and  _131
REMARK   56  A    between atoms: _131  and  _132
REMARK   57  A    between atoms: _131  and  _134
REMARK   58  A    between atoms: _134  and  _135
REMARK   59  A    between atoms: _135  and  _136
REMARK   60  A    between atoms: _136  and  _137
REMARK   61  A    between atoms: _146  and  _148
REMARK   62  A    between atoms: _148  and  _149
REMARK   63  A    between atoms: _148  and  _151
REMARK   64  A    between atoms: _151  and  _152
REMARK   65  A    between atoms: _155  and  _157
REMARK   66  A    between atoms: _157  and  _158
REMARK   67  A    between atoms: _157  and  _160
REMARK   68  A    between atoms: _160  and  _161
REMARK   69  A    between atoms: _166  and  _168
REMARK   70  A    between atoms: _168  and  _169
REMARK   71  A    between atoms: _168  and  _171
REMARK   72  A    between atoms: _171  and  _172
REMARK   73  A    between atoms: _177  and  _178
REMARK   74  A    between atoms: _180  and  _182
REMARK   75  A    between atoms: _182  and  _183
REMARK   76  A    between atoms: _182  and  _185
REMARK   77  A    between atoms: _185  and  _186
REMARK   78  A    between atoms: _188  and  _190
REMARK   79  A    between atoms: _190  and  _191
REMARK   80  A    between atoms: _190  and  _193
REMARK   81  A    between atoms: _193  and  _194
REMARK   82  A    between atoms: _194  and  _195
REMARK   83  A    between atoms: _198  and  _200
REMARK   84  A    between atoms: _200  and  _201
REMARK   85  A    between atoms: _200  and  _203
REMARK   86  A    between atoms: _203  and  _204
REMARK   87  A    between atoms: _207  and  _209
REMARK   88  A    between atoms: _209  and  _210
REMARK   89  A    between atoms: _209  and  _212
REMARK   90  A    between atoms: _212  and  _213
REMARK   91  A    between atoms: _219  and  _221
REMARK   92  A    between atoms: _221  and  _222
REMARK   93  A    between atoms: _221  and  _224
REMARK   94  A    between atoms: _224  and  _225
REMARK   95  A    between atoms: _227  and  _229
REMARK   96  A    between atoms: _229  and  _230
REMARK   97  A    between atoms: _229  and  _232
REMARK   98  A    between atoms: _232  and  _233
REMARK   99  A    between atoms: _236  and  _238
REMARK  100  A    between atoms: _238  and  _239
REMARK  101  A    between atoms: _238  and  _241
REMARK  102  A    between atoms: _241  and  _242
REMARK  103  A    between atoms: _252  and  _254
REMARK  104  A    between atoms: _254  and  _255
REMARK  105  A    between atoms: _254  and  _257
REMARK  106  A    between atoms: _257  and  _258
REMARK  107  A    between atoms: _264  and  _265
REMARK  108  A    between atoms: _270  and  _272
REMARK  109  A    between atoms: _272  and  _273
REMARK  110  A    between atoms: _272  and  _275
REMARK  111  A    between atoms: _275  and  _276
REMARK  112  A    between atoms: _281  and  _282
REMARK  113  A    between atoms: _284  and  _286
REMARK  114  A    between atoms: _286  and  _287
REMARK  115  A    between atoms: _286  and  _289
REMARK  116  A    between atoms: _289  and  _290
REMARK  117  A    between atoms: _292  and  _294
REMARK  118  A    between atoms: _294  and  _295
REMARK  119  A    between atoms: _294  and  _297
REMARK  120  A    between atoms: _297  and  _298
REMARK  121  A    between atoms: _301  and  _303
REMARK  122  A    between atoms: _303  and  _304
REMARK  123  A    between atoms: _303  and  _306
REMARK  124  A    between atoms: _306  and  _307
REMARK  125  A    between atoms: _307  and  _308
REMARK  126  A    between atoms: _308  and  _309
REMARK  127  A    between atoms: _318  and  _320
REMARK  128  A    between atoms: _320  and  _321
REMARK  129  A    between atoms: _320  and  _323
REMARK  130  A    between atoms: _323  and  _324
REMARK  131  A    between atoms: _334  and  _336
REMARK  132  A    between atoms: _336  and  _337
REMARK  133  A    between atoms: _336  and  _339
REMARK  134  A    between atoms: _339  and  _340
REMARK                            x       y       z     vdW  Elec       q    Type
REMARK                         _______ _______ _______ _____ _____    ______ ____
ROOT
ATOM      1  O   HOH     1      83.567  91.001  11.318  0.00  0.00    +0.000 OA
ENDROOT
TORSDOF 0
REMARK  Name = ../refined-set-2016/4ufj/4ufj_pocket.pdb
REMARK  134 active torsions:
REMARK  status: ('A' for Active; 'I' for Inactive)
REMARK    1  A    between atoms: _1  and  _3
REMARK    2  A    between atoms: _3  and  _4
REMARK    3  A    between atoms: _3  and  _6
REMARK    4  A    between atoms: _9  and  _11
REMARK    5  A    between atoms: _11  and  _12
REMARK    6  A    between atoms: _14  and  _16
REMARK    7  A    between atoms: _16  and  _17
REMARK    8  A    between atoms: _19  and  _21
REMARK    9  A    between atoms: _21  and  _22
REMARK   10  A    between atoms: _24  and  _26
REMARK   11  A    between atoms: _26  and  _27
REMARK   12  A    between atoms: _26  and  _29
REMARK   13  A    between atoms: _29  and  _30
REMARK   14  A    between atoms: _33  and  _35
REMARK   15  A    between atoms: _35  and  _36
REMARK   16  A    between atoms: _35  and  _38
REMARK   17  A    between atoms: _38  and  _39
REMARK   18  A    between atoms: _39  and  _40
REMARK   19  A    between atoms: _40  and  _41
REMARK   20  A    between atoms: _41  and  _42
REMARK   21  A    between atoms: _46  and  _48
REMARK   22  A    between atoms: _48  and  _49
REMARK   23  A    between atoms: _48  and  _51
REMARK   24  A    between atoms: _51  and  _52
REMARK   25  A    between atoms: _52  and  _53
REMARK   26  A    between atoms: _56  and  _58
REMARK   27  A    between atoms: _58  and  _59
REMARK   28  A    between atoms: _58  and  _61
REMARK   29  A    between atoms: _61  and  _62
REMARK   30  A    between atoms: _65  and  _67
REMARK   31  A    between atoms: _67  and  _68
REMARK   32  A    between atoms: _67  and  _70
REMARK   33  A    between atoms: _70  and  _71
REMARK   34  A    between atoms: _74  and  _76
REMARK   35  A    between atoms: _76  and  _77
REMARK   36  A    between atoms: _76  and  _79
REMARK   37  A    between atoms: _79  and  _80
REMARK   38  A    between atoms: _83  and  _85
REMARK   39  A    between atoms: _85  and  _86
REMARK   40  A    between atoms: _85  and  _88
REMARK   41  A    between atoms: _88  and  _89
REMARK   42  A    between atoms: _92  and  _94
REMARK   43  A    between atoms: _94  and  _95
REMARK   44  A    between atoms: _94  and  _97
REMARK   45  A    between atoms: _97  and  _98
REMARK   46  A    between atoms: _108  and  _110
REMARK   47  A    between atoms: _110  and  _111
REMARK   48  A    between atoms: _110  and  _113
REMARK   49  A    between atoms: _113  and  _114
REMARK   50  A    between atoms: _119  and  _121
REMARK   51  A    between atoms: _121  and  _122
REMARK   52  A    between atoms: _121  and  _124
REMARK   53  A    between atoms: _124  and  _125
REMARK   54  A    between atoms: _125  and  _126
REMARK   55  A    between atoms: _129  and  _131
REMARK   56  A    between atoms: _131  and  _132
REMARK   57  A    between atoms: _131  and  _134
REMARK   58  A    between atoms: _134  and  _135
REMARK   59  A    between atoms: _135  and  _136
REMARK   60  A    between atoms: _136  and  _137
REMARK   61  A    between atoms: _146  and  _148
REMARK   62  A    between atoms: _148  and  _149
REMARK   63  A    between atoms: _148  and  _151
REMARK   64  A    between atoms: _151  and  _152
REMARK   65  A    between atoms: _155  and  _157
REMARK   66  A    between atoms: _157  and  _158
REMARK   67  A    between atoms: _157  and  _160
REMARK   68  A    between atoms: _160  and  _161
REMARK   69  A    between atoms: _166  and  _168
REMARK   70  A    between atoms: _168  and  _169
REMARK   71  A    between atoms: _168  and  _171
REMARK   72  A    between atoms: _171  and  _172
REMARK   73  A    between atoms: _177  and  _178
REMARK   74  A    between atoms: _180  and  _182
REMARK   75  A    between atoms: _182  and  _183
REMARK   76  A    between atoms: _182  and  _185
REMARK   77  A    between atoms: _185  and  _186
REMARK   78  A    between atoms: _188  and  _190
REMARK   79  A    between atoms: _190  and  _191
REMARK   80  A    between atoms: _190  and  _193
REMARK   81  A    between atoms: _193  and  _194
REMARK   82  A    between atoms: _194  and  _195
REMARK   83  A    between atoms: _198  and  _200
REMARK   84  A    between atoms: _200  and  _201
REMARK   85  A    between atoms: _200  and  _203
REMARK   86  A    between atoms: _203  and  _204
REMARK   87  A    between atoms: _207  and  _209
REMARK   88  A    between atoms: _209  and  _210
REMARK   89  A    between atoms: _209  and  _212
REMARK   90  A    between atoms: _212  and  _213
REMARK   91  A    between atoms: _219  and  _221
REMARK   92  A    between atoms: _221  and  _222
REMARK   93  A    between atoms: _221  and  _224
REMARK   94  A    between atoms: _224  and  _225
REMARK   95  A    between atoms: _227  and  _229
REMARK   96  A    between atoms: _229  and  _230
REMARK   97  A    between atoms: _229  and  _232
REMARK   98  A    between atoms: _232  and  _233
REMARK   99  A    between atoms: _236  and  _238
REMARK  100  A    between atoms: _238  and  _239
REMARK  101  A    between atoms: _238  and  _241
REMARK  102  A    between atoms: _241  and  _242
REMARK  103  A    between atoms: _252  and  _254
REMARK  104  A    between atoms: _254  and  _255
REMARK  105  A    between atoms: _254  and  _257
REMARK  106  A    between atoms: _257  and  _258
REMARK  107  A    between atoms: _264  and  _265
REMARK  108  A    between atoms: _270  and  _272
REMARK  109  A    between atoms: _272  and  _273
REMARK  110  A    between atoms: _272  and  _275
REMARK  111  A    between atoms: _275  and  _276
REMARK  112  A    between atoms: _281  and  _282
REMARK  113  A    between atoms: _284  and  _286
REMARK  114  A    between atoms: _286  and  _287
REMARK  115  A    between atoms: _286  and  _289
REMARK  116  A    between atoms: _289  and  _290
REMARK  117  A    between atoms: _292  and  _294
REMARK  118  A    between atoms: _294  and  _295
REMARK  119  A    between atoms: _294  and  _297
REMARK  120  A    between atoms: _297  and  _298
REMARK  121  A    between atoms: _301  and  _303
REMARK  122  A    between atoms: _303  and  _304
REMARK  123  A    between atoms: _303  and  _306
REMARK  124  A    between atoms: _306  and  _307
REMARK  125  A    between atoms: _307  and  _308
REMARK  126  A    between atoms: _308  and  _309
REMARK  127  A    between atoms: _318  and  _320
REMARK  128  A    between atoms: _320  and  _321
REMARK  129  A    between atoms: _320  and  _323
REMARK  130  A    between atoms: _323  and  _324
REMARK  131  A    between atoms: _334  and  _336
REMARK  132  A    between atoms: _336  and  _337
REMARK  133  A    between atoms: _336  and  _339
REMARK  134  A    between atoms: _339  and  _340
REMARK                            x       y       z     vdW  Elec       q    Type
REMARK                         _______ _______ _______ _____ _____    ______ ____
ROOT
ATOM      1  O   HOH     1      87.611  88.191  17.066  0.00  0.00    +0.000 OA
ENDROOT
TORSDOF 0
REMARK  Name = ../refined-set-2016/4ufj/4ufj_pocket.pdb
REMARK  134 active torsions:
REMARK  status: ('A' for Active; 'I' for Inactive)
REMARK    1  A    between atoms: _1  and  _3
REMARK    2  A    between atoms: _3  and  _4
REMARK    3  A    between atoms: _3  and  _6
REMARK    4  A    between atoms: _9  and  _11
REMARK    5  A    between atoms: _11  and  _12
REMARK    6  A    between atoms: _14  and  _16
REMARK    7  A    between atoms: _16  and  _17
REMARK    8  A    between atoms: _19  and  _21
REMARK    9  A    between atoms: _21  and  _22
REMARK   10  A    between atoms: _24  and  _26
REMARK   11  A    between atoms: _26  and  _27
REMARK   12  A    between atoms: _26  and  _29
REMARK   13  A    between atoms: _29  and  _30
REMARK   14  A    between atoms: _33  and  _35
REMARK   15  A    between atoms: _35  and  _36
REMARK   16  A    between atoms: _35  and  _38
REMARK   17  A    between atoms: _38  and  _39
REMARK   18  A    between atoms: _39  and  _40
REMARK   19  A    between atoms: _40  and  _41
REMARK   20  A    between atoms: _41  and  _42
REMARK   21  A    between atoms: _46  and  _48
REMARK   22  A    between atoms: _48  and  _49
REMARK   23  A    between atoms: _48  and  _51
REMARK   24  A    between atoms: _51  and  _52
REMARK   25  A    between atoms: _52  and  _53
REMARK   26  A    between atoms: _56  and  _58
REMARK   27  A    between atoms: _58  and  _59
REMARK   28  A    between atoms: _58  and  _61
REMARK   29  A    between atoms: _61  and  _62
REMARK   30  A    between atoms: _65  and  _67
REMARK   31  A    between atoms: _67  and  _68
REMARK   32  A    between atoms: _67  and  _70
REMARK   33  A    between atoms: _70  and  _71
REMARK   34  A    between atoms: _74  and  _76
REMARK   35  A    between atoms: _76  and  _77
REMARK   36  A    between atoms: _76  and  _79
REMARK   37  A    between atoms: _79  and  _80
REMARK   38  A    between atoms: _83  and  _85
REMARK   39  A    between atoms: _85  and  _86
REMARK   40  A    between atoms: _85  and  _88
REMARK   41  A    between atoms: _88  and  _89
REMARK   42  A    between atoms: _92  and  _94
REMARK   43  A    between atoms: _94  and  _95
REMARK   44  A    between atoms: _94  and  _97
REMARK   45  A    between atoms: _97  and  _98
REMARK   46  A    between atoms: _108  and  _110
REMARK   47  A    between atoms: _110  and  _111
REMARK   48  A    between atoms: _110  and  _113
REMARK   49  A    between atoms: _113  and  _114
REMARK   50  A    between atoms: _119  and  _121
REMARK   51  A    between atoms: _121  and  _122
REMARK   52  A    between atoms: _121  and  _124
REMARK   53  A    between atoms: _124  and  _125
REMARK   54  A    between atoms: _125  and  _126
REMARK   55  A    between atoms: _129  and  _131
REMARK   56  A    between atoms: _131  and  _132
REMARK   57  A    between atoms: _131  and  _134
REMARK   58  A    between atoms: _134  and  _135
REMARK   59  A    between atoms: _135  and  _136
REMARK   60  A    between atoms: _136  and  _137
REMARK   61  A    between atoms: _146  and  _148
REMARK   62  A    between atoms: _148  and  _149
REMARK   63  A    between atoms: _148  and  _151
REMARK   64  A    between atoms: _151  and  _152
REMARK   65  A    between atoms: _155  and  _157
REMARK   66  A    between atoms: _157  and  _158
REMARK   67  A    between atoms: _157  and  _160
REMARK   68  A    between atoms: _160  and  _161
REMARK   69  A    between atoms: _166  and  _168
REMARK   70  A    between atoms: _168  and  _169
REMARK   71  A    between atoms: _168  and  _171
REMARK   72  A    between atoms: _171  and  _172
REMARK   73  A    between atoms: _177  and  _178
REMARK   74  A    between atoms: _180  and  _182
REMARK   75  A    between atoms: _182  and  _183
REMARK   76  A    between atoms: _182  and  _185
REMARK   77  A    between atoms: _185  and  _186
REMARK   78  A    between atoms: _188  and  _190
REMARK   79  A    between atoms: _190  and  _191
REMARK   80  A    between atoms: _190  and  _193
REMARK   81  A    between atoms: _193  and  _194
REMARK   82  A    between atoms: _194  and  _195
REMARK   83  A    between atoms: _198  and  _200
REMARK   84  A    between atoms: _200  and  _201
REMARK   85  A    between atoms: _200  and  _203
REMARK   86  A    between atoms: _203  and  _204
REMARK   87  A    between atoms: _207  and  _209
REMARK   88  A    between atoms: _209  and  _210
REMARK   89  A    between atoms: _209  and  _212
REMARK   90  A    between atoms: _212  and  _213
REMARK   91  A    between atoms: _219  and  _221
REMARK   92  A    between atoms: _221  and  _222
REMARK   93  A    between atoms: _221  and  _224
REMARK   94  A    between atoms: _224  and  _225
REMARK   95  A    between atoms: _227  and  _229
REMARK   96  A    between atoms: _229  and  _230
REMARK   97  A    between atoms: _229  and  _232
REMARK   98  A    between atoms: _232  and  _233
REMARK   99  A    between atoms: _236  and  _238
REMARK  100  A    between atoms: _238  and  _239
REMARK  101  A    between atoms: _238  and  _241
REMARK  102  A    between atoms: _241  and  _242
REMARK  103  A    between atoms: _252  and  _254
REMARK  104  A    between atoms: _254  and  _255
REMARK  105  A    between atoms: _254  and  _257
REMARK  106  A    between atoms: _257  and  _258
REMARK  107  A    between atoms: _264  and  _265
REMARK  108  A    between atoms: _270  and  _272
REMARK  109  A    between atoms: _272  and  _273
REMARK  110  A    between atoms: _272  and  _275
REMARK  111  A    between atoms: _275  and  _276
REMARK  112  A    between atoms: _281  and  _282
REMARK  113  A    between atoms: _284  and  _286
REMARK  114  A    between atoms: _286  and  _287
REMARK  115  A    between atoms: _286  and  _289
REMARK  116  A    between atoms: _289  and  _290
REMARK  117  A    between atoms: _292  and  _294
REMARK  118  A    between atoms: _294  and  _295
REMARK  119  A    between atoms: _294  and  _297
REMARK  120  A    between atoms: _297  and  _298
REMARK  121  A    between atoms: _301  and  _303
REMARK  122  A    between atoms: _303  and  _304
REMARK  123  A    between atoms: _303  and  _306
REMARK  124  A    between atoms: _306  and  _307
REMARK  125  A    between atoms: _307  and  _308
REMARK  126  A    between atoms: _308  and  _309
REMARK  127  A    between atoms: _318  and  _320
REMARK  128  A    between atoms: _320  and  _321
REMARK  129  A    between atoms: _320  and  _323
REMARK  130  A    between atoms: _323  and  _324
REMARK  131  A    between atoms: _334  and  _336
REMARK  132  A    between atoms: _336  and  _337
REMARK  133  A    between atoms: _336  and  _339
REMARK  134  A    between atoms: _339  and  _340
REMARK                            x       y       z     vdW  Elec       q    Type
REMARK                         _______ _______ _______ _____ _____    ______ ____
ROOT
ATOM      1  O   HOH     1      78.084  85.660  19.231  0.00  0.00    +0.000 OA
ENDROOT
TORSDOF 0
