REMARK  Name = ../refined-set-2016/1oif/1oif_pocket.pdb
REMARK  150 active torsions:
REMARK  status: ('A' for Active; 'I' for Inactive)
REMARK    1  A    between atoms: _1  and  _3
REMARK    2  A    between atoms: _3  and  _4
REMARK    3  A    between atoms: _7  and  _9
REMARK    4  A    between atoms: _9  and  _10
REMARK    5  A    between atoms: _9  and  _12
REMARK    6  A    between atoms: _12  and  _13
REMARK    7  A    between atoms: _16  and  _18
REMARK    8  A    between atoms: _18  and  _19
REMARK    9  A    between atoms: _22  and  _24
REMARK   10  A    between atoms: _24  and  _25
REMARK   11  A    between atoms: _24  and  _27
REMARK   12  A    between atoms: _27  and  _28
REMARK   13  A    between atoms: _30  and  _32
REMARK   14  A    between atoms: _32  and  _33
REMARK   15  A    between atoms: _32  and  _35
REMARK   16  A    between atoms: _35  and  _36
REMARK   17  A    between atoms: _41  and  _42
REMARK   18  A    between atoms: _44  and  _46
REMARK   19  A    between atoms: _46  and  _47
REMARK   20  A    between atoms: _46  and  _49
REMARK   21  A    between atoms: _49  and  _50
REMARK   22  A    between atoms: _50  and  _51
REMARK   23  A    between atoms: _56  and  _58
REMARK   24  A    between atoms: _58  and  _59
REMARK   25  A    between atoms: _58  and  _61
REMARK   26  A    between atoms: _61  and  _62
REMARK   27  A    between atoms: _62  and  _63
REMARK   28  A    between atoms: _63  and  _64
REMARK   29  A    between atoms: _73  and  _75
REMARK   30  A    between atoms: _75  and  _76
REMARK   31  A    between atoms: _75  and  _78
REMARK   32  A    between atoms: _78  and  _79
REMARK   33  A    between atoms: _84  and  _86
REMARK   34  A    between atoms: _86  and  _87
REMARK   35  A    between atoms: _86  and  _89
REMARK   36  A    between atoms: _89  and  _90
REMARK   37  A    between atoms: _100  and  _102
REMARK   38  A    between atoms: _102  and  _103
REMARK   39  A    between atoms: _102  and  _105
REMARK   40  A    between atoms: _105  and  _106
REMARK   41  A    between atoms: _111  and  _113
REMARK   42  A    between atoms: _113  and  _114
REMARK   43  A    between atoms: _113  and  _116
REMARK   44  A    between atoms: _116  and  _117
REMARK   45  A    between atoms: _117  and  _118
REMARK   46  A    between atoms: _121  and  _123
REMARK   47  A    between atoms: _123  and  _124
REMARK   48  A    between atoms: _123  and  _126
REMARK   49  A    between atoms: _129  and  _131
REMARK   50  A    between atoms: _131  and  _132
REMARK   51  A    between atoms: _131  and  _134
REMARK   52  A    between atoms: _134  and  _135
REMARK   53  A    between atoms: _140  and  _142
REMARK   54  A    between atoms: _142  and  _143
REMARK   55  A    between atoms: _142  and  _145
REMARK   56  A    between atoms: _148  and  _150
REMARK   57  A    between atoms: _150  and  _151
REMARK   58  A    between atoms: _150  and  _153
REMARK   59  A    between atoms: _153  and  _154
REMARK   60  A    between atoms: _160  and  _162
REMARK   61  A    between atoms: _162  and  _163
REMARK   62  A    between atoms: _162  and  _165
REMARK   63  A    between atoms: _165  and  _166
REMARK   64  A    between atoms: _171  and  _173
REMARK   65  A    between atoms: _173  and  _174
REMARK   66  A    between atoms: _173  and  _176
REMARK   67  A    between atoms: _176  and  _177
REMARK   68  A    between atoms: _182  and  _184
REMARK   69  A    between atoms: _184  and  _185
REMARK   70  A    between atoms: _184  and  _187
REMARK   71  A    between atoms: _187  and  _188
REMARK   72  A    between atoms: _193  and  _195
REMARK   73  A    between atoms: _195  and  _196
REMARK   74  A    between atoms: _195  and  _198
REMARK   75  A    between atoms: _198  and  _199
REMARK   76  A    between atoms: _204  and  _205
REMARK   77  A    between atoms: _207  and  _209
REMARK   78  A    between atoms: _209  and  _210
REMARK   79  A    between atoms: _209  and  _212
REMARK   80  A    between atoms: _212  and  _213
REMARK   81  A    between atoms: _218  and  _219
REMARK   82  A    between atoms: _221  and  _223
REMARK   83  A    between atoms: _223  and  _224
REMARK   84  A    between atoms: _223  and  _226
REMARK   85  A    between atoms: _226  and  _227
REMARK   86  A    between atoms: _227  and  _228
REMARK   87  A    between atoms: _230  and  _232
REMARK   88  A    between atoms: _232  and  _233
REMARK   89  A    between atoms: _232  and  _235
REMARK   90  A    between atoms: _235  and  _236
REMARK   91  A    between atoms: _246  and  _248
REMARK   92  A    between atoms: _248  and  _249
REMARK   93  A    between atoms: _248  and  _251
REMARK   94  A    between atoms: _251  and  _252
REMARK   95  A    between atoms: _255  and  _257
REMARK   96  A    between atoms: _257  and  _258
REMARK   97  A    between atoms: _257  and  _260
REMARK   98  A    between atoms: _260  and  _261
REMARK   99  A    between atoms: _261  and  _262
REMARK  100  A    between atoms: _265  and  _267
REMARK  101  A    between atoms: _267  and  _268
REMARK  102  A    between atoms: _267  and  _270
REMARK  103  A    between atoms: _270  and  _271
REMARK  104  A    between atoms: _276  and  _278
REMARK  105  A    between atoms: _278  and  _279
REMARK  106  A    between atoms: _281  and  _283
REMARK  107  A    between atoms: _283  and  _284
REMARK  108  A    between atoms: _287  and  _289
REMARK  109  A    between atoms: _289  and  _290
REMARK  110  A    between atoms: _293  and  _295
REMARK  111  A    between atoms: _295  and  _296
REMARK  112  A    between atoms: _295  and  _298
REMARK  113  A    between atoms: _298  and  _299
REMARK  114  A    between atoms: _309  and  _311
REMARK  115  A    between atoms: _311  and  _312
REMARK  116  A    between atoms: _311  and  _314
REMARK  117  A    between atoms: _314  and  _315
REMARK  118  A    between atoms: _317  and  _319
REMARK  119  A    between atoms: _319  and  _320
REMARK  120  A    between atoms: _319  and  _322
REMARK  121  A    between atoms: _322  and  _323
REMARK  122  A    between atoms: _328  and  _330
REMARK  123  A    between atoms: _330  and  _331
REMARK  124  A    between atoms: _330  and  _333
REMARK  125  A    between atoms: _333  and  _334
REMARK  126  A    between atoms: _340  and  _342
REMARK  127  A    between atoms: _342  and  _343
REMARK  128  A    between atoms: _342  and  _345
REMARK  129  A    between atoms: _345  and  _346
REMARK  130  A    between atoms: _346  and  _347
REMARK  131  A    between atoms: _350  and  _352
REMARK  132  A    between atoms: _352  and  _353
REMARK  133  A    between atoms: _352  and  _355
REMARK  134  A    between atoms: _355  and  _356
REMARK  135  A    between atoms: _366  and  _368
REMARK  136  A    between atoms: _368  and  _369
REMARK  137  A    between atoms: _368  and  _371
REMARK  138  A    between atoms: _371  and  _372
REMARK  139  A    between atoms: _372  and  _373
REMARK  140  A    between atoms: _376  and  _378
REMARK  141  A    between atoms: _378  and  _379
REMARK  142  A    between atoms: _378  and  _381
REMARK  143  A    between atoms: _381  and  _382
REMARK  144  A    between atoms: _382  and  _383
REMARK  145  A    between atoms: _383  and  _384
REMARK  146  A    between atoms: _384  and  _385
REMARK  147  A    between atoms: _389  and  _391
REMARK  148  A    between atoms: _391  and  _392
REMARK  149  A    between atoms: _391  and  _394
REMARK  150  A    between atoms: _394  and  _395
REMARK                            x       y       z     vdW  Elec       q    Type
REMARK                         _______ _______ _______ _____ _____    ______ ____
ROOT
ATOM      1  C   SER A   4       4.917  16.827   0.511  0.00  0.00    +0.243 C 
ATOM      2  N   TYR A   5       5.478  15.738   1.047  0.00  0.00    -0.297 N 
ATOM      3  H   TYR A   5       5.761  15.728   2.048  0.00  0.00    +0.150 HD
ATOM      4  O   SER A   4       4.493  16.852  -0.663  0.00  0.00    -0.273 OA
ENDROOT
BRANCH   2   5
ATOM      5  CA  TYR A   5       5.690  14.551   0.198  0.00  0.00    +0.153 C 
BRANCH   5   6
ATOM      6  C   TYR A   5       4.339  13.921  -0.196  0.00  0.00    +0.241 C 
ATOM      7  N   GLN A   6       3.334  14.106   0.642  0.00  0.00    -0.298 N 
ATOM      8  H   GLN A   6       3.461  14.702   1.485  0.00  0.00    +0.150 HD
ATOM      9  O   TYR A   5       4.200  13.304  -1.251  0.00  0.00    -0.273 OA
BRANCH   7  10
ATOM     10  CA  GLN A   6       2.044  13.471   0.382  0.00  0.00    +0.137 C 
BRANCH  10  11
ATOM     11  C   GLN A   6       1.202  14.136  -0.729  0.00  0.00    +0.227 C 
ATOM     12  O   GLN A   6       0.295  13.492  -1.263  0.00  0.00    -0.286 OA
ENDBRANCH  10  11
BRANCH  10  13
ATOM     13  CB  GLN A   6       1.237  13.354   1.653  0.00  0.00    +0.037 C 
BRANCH  13  14
ATOM     14  CG  GLN A   6       1.941  12.555   2.709  0.00  0.00    +0.087 C 
BRANCH  14  15
ATOM     15  CD  GLN A   6       1.102  12.344   3.939  0.00  0.00    +0.219 C 
ATOM     16  OE1 GLN A   6       1.212  13.094   4.901  0.00  0.00    -0.275 OA
ATOM     17  NE2 GLN A   6       0.302  11.281   3.938  0.00  0.00    -0.329 N 
ATOM     18 HE21 GLN A   6      -0.265  11.056   4.780  0.00  0.00    +0.145 HD
ATOM     19 HE22 GLN A   6       0.244  10.675   3.095  0.00  0.00    +0.145 HD
ENDBRANCH  14  15
ENDBRANCH  13  14
ENDBRANCH  10  13
ENDBRANCH   7  10
ENDBRANCH   5   6
BRANCH   5  20
ATOM     20  CB  TYR A   5       6.666  13.524   0.833  0.00  0.00    +0.055 C 
BRANCH  20  21
ATOM     21  CG  TYR A   5       7.067  12.450  -0.145  0.00  0.00    -0.020 A 
ATOM     22  CD2 TYR A   5       6.394  11.214  -0.184  0.00  0.00    -0.001 A 
ATOM     23  CE2 TYR A   5       6.739  10.207  -1.115  0.00  0.00    +0.036 A 
ATOM     24  CZ  TYR A   5       7.735  10.455  -2.059  0.00  0.00    +0.134 A 
ATOM     25  CE1 TYR A   5       8.383  11.697  -2.072  0.00  0.00    +0.036 A 
ATOM     26  CD1 TYR A   5       8.045  12.691  -1.104  0.00  0.00    -0.001 A 
BRANCH  24  27
ATOM     27  OH  TYR A   5       8.085   9.487  -3.009  0.00  0.00    -0.506 OA
ATOM     28  HH  TYR A   5       8.805   9.841  -3.589  0.00  0.00    +0.292 HD
ENDBRANCH  24  27
ENDBRANCH  20  21
ENDBRANCH   5  20
ENDBRANCH   2   5
BRANCH   1  29
ATOM     29  CA  SER A   4       4.829  18.074   1.404  0.00  0.00    +0.178 C 
BRANCH  29  31
ATOM     30  C   ALA A   3       2.965  17.264   2.800  0.00  0.00    +0.241 C 
ATOM     31  N   SER A   4       4.148  17.867   2.682  0.00  0.00    -0.295 N 
ATOM     32  H   SER A   4       4.613  18.209   3.547  0.00  0.00    +0.150 HD
ATOM     33  O   ALA A   3       2.355  16.730   1.847  0.00  0.00    -0.273 OA
BRANCH  30  34
ATOM     34  CA  ALA A   3       2.351  17.295   4.205  0.00  0.00    +0.149 C 
ATOM     35  CB  ALA A   3       2.707  16.044   4.984  0.00  0.00    +0.031 C 
BRANCH  34  38
ATOM     36  C   THR A   2       0.186  18.255   4.920  0.00  0.00    +0.243 C 
ATOM     37  O   THR A   2       0.627  18.771   5.957  0.00  0.00    -0.273 OA
ATOM     38  N   ALA A   3       0.903  17.471   4.098  0.00  0.00    -0.297 N 
ATOM     39  H   ALA A   3       0.401  16.961   3.344  0.00  0.00    +0.150 HD
BRANCH  36  40
ATOM     40  CA  THR A   2      -1.259  18.462   4.514  0.00  0.00    +0.176 C 
BRANCH  40  42
ATOM     41  C   ALA A   1      -3.150  19.128   5.920  0.00  0.00    +0.238 C 
ATOM     42  N   THR A   2      -1.918  19.346   5.465  0.00  0.00    -0.295 N 
ATOM     43  H   THR A   2      -1.404  20.184   5.804  0.00  0.00    +0.150 HD
ATOM     44  O   ALA A   1      -3.909  18.284   5.425  0.00  0.00    -0.274 OA
BRANCH  41  45
ATOM     45  CA  ALA A   1      -3.604  20.025   7.089  0.00  0.00    +0.145 C 
ATOM     46  CB  ALA A   1      -3.384  19.307   8.397  0.00  0.00    +0.028 C 
BRANCH  45  47
ATOM     47  N   ALA A   1      -4.998  20.445   6.988  0.00  0.00    -0.238 NA
ATOM     48  H   ALA A   1      -5.712  19.728   6.749  0.00  0.00    +0.142 HD
ENDBRANCH  45  47
ENDBRANCH  41  45
ENDBRANCH  40  42
BRANCH  40  49
ATOM     49  CB  THR A   2      -1.277  19.013   3.085  0.00  0.00    +0.137 C 
ATOM     50  CG2 THR A   2      -2.677  19.152   2.539  0.00  0.00    +0.034 C 
BRANCH  49  51
ATOM     51  OG1 THR A   2      -0.733  20.346   3.055  0.00  0.00    -0.382 OA
ATOM     52  HG1 THR A   2      -0.751  20.688   2.126  0.00  0.00    +0.210 HD
ENDBRANCH  49  51
ENDBRANCH  40  49
ENDBRANCH  36  40
ENDBRANCH  34  38
ENDBRANCH  30  34
ENDBRANCH  29  31
BRANCH  29  53
ATOM     53  CB  SER A   4       6.263  18.611   1.643  0.00  0.00    +0.166 C 
BRANCH  53  54
ATOM     54  OG  SER A   4       6.956  17.850   2.653  0.00  0.00    -0.380 OA
ATOM     55  H   SER A   4       7.020  16.905   2.366  0.00  0.00    +0.211 HD
ENDBRANCH  53  54
ENDBRANCH  29  53
ENDBRANCH   1  29
TORSDOF 22
REMARK  Name = ../refined-set-2016/1oif/1oif_pocket.pdb
REMARK  150 active torsions:
REMARK  status: ('A' for Active; 'I' for Inactive)
REMARK    1  A    between atoms: _1  and  _3
REMARK    2  A    between atoms: _3  and  _4
REMARK    3  A    between atoms: _7  and  _9
REMARK    4  A    between atoms: _9  and  _10
REMARK    5  A    between atoms: _9  and  _12
REMARK    6  A    between atoms: _12  and  _13
REMARK    7  A    between atoms: _16  and  _18
REMARK    8  A    between atoms: _18  and  _19
REMARK    9  A    between atoms: _22  and  _24
REMARK   10  A    between atoms: _24  and  _25
REMARK   11  A    between atoms: _24  and  _27
REMARK   12  A    between atoms: _27  and  _28
REMARK   13  A    between atoms: _30  and  _32
REMARK   14  A    between atoms: _32  and  _33
REMARK   15  A    between atoms: _32  and  _35
REMARK   16  A    between atoms: _35  and  _36
REMARK   17  A    between atoms: _41  and  _42
REMARK   18  A    between atoms: _44  and  _46
REMARK   19  A    between atoms: _46  and  _47
REMARK   20  A    between atoms: _46  and  _49
REMARK   21  A    between atoms: _49  and  _50
REMARK   22  A    between atoms: _50  and  _51
REMARK   23  A    between atoms: _56  and  _58
REMARK   24  A    between atoms: _58  and  _59
REMARK   25  A    between atoms: _58  and  _61
REMARK   26  A    between atoms: _61  and  _62
REMARK   27  A    between atoms: _62  and  _63
REMARK   28  A    between atoms: _63  and  _64
REMARK   29  A    between atoms: _73  and  _75
REMARK   30  A    between atoms: _75  and  _76
REMARK   31  A    between atoms: _75  and  _78
REMARK   32  A    between atoms: _78  and  _79
REMARK   33  A    between atoms: _84  and  _86
REMARK   34  A    between atoms: _86  and  _87
REMARK   35  A    between atoms: _86  and  _89
REMARK   36  A    between atoms: _89  and  _90
REMARK   37  A    between atoms: _100  and  _102
REMARK   38  A    between atoms: _102  and  _103
REMARK   39  A    between atoms: _102  and  _105
REMARK   40  A    between atoms: _105  and  _106
REMARK   41  A    between atoms: _111  and  _113
REMARK   42  A    between atoms: _113  and  _114
REMARK   43  A    between atoms: _113  and  _116
REMARK   44  A    between atoms: _116  and  _117
REMARK   45  A    between atoms: _117  and  _118
REMARK   46  A    between atoms: _121  and  _123
REMARK   47  A    between atoms: _123  and  _124
REMARK   48  A    between atoms: _123  and  _126
REMARK   49  A    between atoms: _129  and  _131
REMARK   50  A    between atoms: _131  and  _132
REMARK   51  A    between atoms: _131  and  _134
REMARK   52  A    between atoms: _134  and  _135
REMARK   53  A    between atoms: _140  and  _142
REMARK   54  A    between atoms: _142  and  _143
REMARK   55  A    between atoms: _142  and  _145
REMARK   56  A    between atoms: _148  and  _150
REMARK   57  A    between atoms: _150  and  _151
REMARK   58  A    between atoms: _150  and  _153
REMARK   59  A    between atoms: _153  and  _154
REMARK   60  A    between atoms: _160  and  _162
REMARK   61  A    between atoms: _162  and  _163
REMARK   62  A    between atoms: _162  and  _165
REMARK   63  A    between atoms: _165  and  _166
REMARK   64  A    between atoms: _171  and  _173
REMARK   65  A    between atoms: _173  and  _174
REMARK   66  A    between atoms: _173  and  _176
REMARK   67  A    between atoms: _176  and  _177
REMARK   68  A    between atoms: _182  and  _184
REMARK   69  A    between atoms: _184  and  _185
REMARK   70  A    between atoms: _184  and  _187
REMARK   71  A    between atoms: _187  and  _188
REMARK   72  A    between atoms: _193  and  _195
REMARK   73  A    between atoms: _195  and  _196
REMARK   74  A    between atoms: _195  and  _198
REMARK   75  A    between atoms: _198  and  _199
REMARK   76  A    between atoms: _204  and  _205
REMARK   77  A    between atoms: _207  and  _209
REMARK   78  A    between atoms: _209  and  _210
REMARK   79  A    between atoms: _209  and  _212
REMARK   80  A    between atoms: _212  and  _213
REMARK   81  A    between atoms: _218  and  _219
REMARK   82  A    between atoms: _221  and  _223
REMARK   83  A    between atoms: _223  and  _224
REMARK   84  A    between atoms: _223  and  _226
REMARK   85  A    between atoms: _226  and  _227
REMARK   86  A    between atoms: _227  and  _228
REMARK   87  A    between atoms: _230  and  _232
REMARK   88  A    between atoms: _232  and  _233
REMARK   89  A    between atoms: _232  and  _235
REMARK   90  A    between atoms: _235  and  _236
REMARK   91  A    between atoms: _246  and  _248
REMARK   92  A    between atoms: _248  and  _249
REMARK   93  A    between atoms: _248  and  _251
REMARK   94  A    between atoms: _251  and  _252
REMARK   95  A    between atoms: _255  and  _257
REMARK   96  A    between atoms: _257  and  _258
REMARK   97  A    between atoms: _257  and  _260
REMARK   98  A    between atoms: _260  and  _261
REMARK   99  A    between atoms: _261  and  _262
REMARK  100  A    between atoms: _265  and  _267
REMARK  101  A    between atoms: _267  and  _268
REMARK  102  A    between atoms: _267  and  _270
REMARK  103  A    between atoms: _270  and  _271
REMARK  104  A    between atoms: _276  and  _278
REMARK  105  A    between atoms: _278  and  _279
REMARK  106  A    between atoms: _281  and  _283
REMARK  107  A    between atoms: _283  and  _284
REMARK  108  A    between atoms: _287  and  _289
REMARK  109  A    between atoms: _289  and  _290
REMARK  110  A    between atoms: _293  and  _295
REMARK  111  A    between atoms: _295  and  _296
REMARK  112  A    between atoms: _295  and  _298
REMARK  113  A    between atoms: _298  and  _299
REMARK  114  A    between atoms: _309  and  _311
REMARK  115  A    between atoms: _311  and  _312
REMARK  116  A    between atoms: _311  and  _314
REMARK  117  A    between atoms: _314  and  _315
REMARK  118  A    between atoms: _317  and  _319
REMARK  119  A    between atoms: _319  and  _320
REMARK  120  A    between atoms: _319  and  _322
REMARK  121  A    between atoms: _322  and  _323
REMARK  122  A    between atoms: _328  and  _330
REMARK  123  A    between atoms: _330  and  _331
REMARK  124  A    between atoms: _330  and  _333
REMARK  125  A    between atoms: _333  and  _334
REMARK  126  A    between atoms: _340  and  _342
REMARK  127  A    between atoms: _342  and  _343
REMARK  128  A    between atoms: _342  and  _345
REMARK  129  A    between atoms: _345  and  _346
REMARK  130  A    between atoms: _346  and  _347
REMARK  131  A    between atoms: _350  and  _352
REMARK  132  A    between atoms: _352  and  _353
REMARK  133  A    between atoms: _352  and  _355
REMARK  134  A    between atoms: _355  and  _356
REMARK  135  A    between atoms: _366  and  _368
REMARK  136  A    between atoms: _368  and  _369
REMARK  137  A    between atoms: _368  and  _371
REMARK  138  A    between atoms: _371  and  _372
REMARK  139  A    between atoms: _372  and  _373
REMARK  140  A    between atoms: _376  and  _378
REMARK  141  A    between atoms: _378  and  _379
REMARK  142  A    between atoms: _378  and  _381
REMARK  143  A    between atoms: _381  and  _382
REMARK  144  A    between atoms: _382  and  _383
REMARK  145  A    between atoms: _383  and  _384
REMARK  146  A    between atoms: _384  and  _385
REMARK  147  A    between atoms: _389  and  _391
REMARK  148  A    between atoms: _391  and  _392
REMARK  149  A    between atoms: _391  and  _394
REMARK  150  A    between atoms: _394  and  _395
REMARK                            x       y       z     vdW  Elec       q    Type
REMARK                         _______ _______ _______ _____ _____    ______ ____
ROOT
ATOM      1  NE  ARG A   1       0.793  20.044  11.220  0.00  0.00    -0.265 N 
ATOM      2  CZ  ARG A   1       0.852  18.730  11.366  0.00  0.00    +0.342 C 
ATOM      3  NH2 ARG A   1       2.039  18.163  11.508  0.00  0.00    -0.292 N 
ATOM      4 HH21 ARG A   1       2.112  17.132  11.624  0.00  0.00    +0.255 HD
ATOM      5 HH22 ARG A   1       2.899  18.748  11.503  0.00  0.00    +0.255 HD
ATOM      6  NH1 ARG A   1      -0.240  17.971  11.372  0.00  0.00    -0.292 N 
ATOM      7 HH11 ARG A   1      -0.157  16.941  11.489  0.00  0.00    +0.255 HD
ATOM      8 HH12 ARG A   1      -1.177  18.407  11.260  0.00  0.00    +0.255 HD
ATOM      9  HE  ARG A   1       1.698  20.556  11.250  0.00  0.00    +0.259 HD
ENDROOT
BRANCH   1  10
ATOM     10  CD  ARG A   1      -0.411  20.853  11.021  0.00  0.00    +0.174 C 
BRANCH  10  11
ATOM     11  CG  ARG A   1      -0.161  21.866   9.938  0.00  0.00    +0.045 C 
BRANCH  11  12
ATOM     12  CB  ARG A   1      -1.418  22.522   9.348  0.00  0.00    +0.029 C 
BRANCH  12  13
ATOM     13  CA  ARG A   1      -1.084  23.488   8.208  0.00  0.00    +0.133 C 
BRANCH  13  14
ATOM     14  N   ARG A   1      -2.278  24.173   7.765  0.00  0.00    -0.239 NA
ATOM     15  H   ARG A   1      -3.187  23.668   7.787  0.00  0.00    +0.142 HD
ENDBRANCH  13  14
BRANCH  13  16
ATOM     16  C   ARG A   1      -0.463  22.744   7.017  0.00  0.00    +0.224 C 
ATOM     17  O   ARG A   1      -1.082  21.815   6.455  0.00  0.00    -0.287 OA
ENDBRANCH  13  16
ENDBRANCH  12  13
ENDBRANCH  11  12
ENDBRANCH  10  11
ENDBRANCH   1  10
TORSDOF 6
REMARK  Name = ../refined-set-2016/1oif/1oif_pocket.pdb
REMARK  150 active torsions:
REMARK  status: ('A' for Active; 'I' for Inactive)
REMARK    1  A    between atoms: _1  and  _3
REMARK    2  A    between atoms: _3  and  _4
REMARK    3  A    between atoms: _7  and  _9
REMARK    4  A    between atoms: _9  and  _10
REMARK    5  A    between atoms: _9  and  _12
REMARK    6  A    between atoms: _12  and  _13
REMARK    7  A    between atoms: _16  and  _18
REMARK    8  A    between atoms: _18  and  _19
REMARK    9  A    between atoms: _22  and  _24
REMARK   10  A    between atoms: _24  and  _25
REMARK   11  A    between atoms: _24  and  _27
REMARK   12  A    between atoms: _27  and  _28
REMARK   13  A    between atoms: _30  and  _32
REMARK   14  A    between atoms: _32  and  _33
REMARK   15  A    between atoms: _32  and  _35
REMARK   16  A    between atoms: _35  and  _36
REMARK   17  A    between atoms: _41  and  _42
REMARK   18  A    between atoms: _44  and  _46
REMARK   19  A    between atoms: _46  and  _47
REMARK   20  A    between atoms: _46  and  _49
REMARK   21  A    between atoms: _49  and  _50
REMARK   22  A    between atoms: _50  and  _51
REMARK   23  A    between atoms: _56  and  _58
REMARK   24  A    between atoms: _58  and  _59
REMARK   25  A    between atoms: _58  and  _61
REMARK   26  A    between atoms: _61  and  _62
REMARK   27  A    between atoms: _62  and  _63
REMARK   28  A    between atoms: _63  and  _64
REMARK   29  A    between atoms: _73  and  _75
REMARK   30  A    between atoms: _75  and  _76
REMARK   31  A    between atoms: _75  and  _78
REMARK   32  A    between atoms: _78  and  _79
REMARK   33  A    between atoms: _84  and  _86
REMARK   34  A    between atoms: _86  and  _87
REMARK   35  A    between atoms: _86  and  _89
REMARK   36  A    between atoms: _89  and  _90
REMARK   37  A    between atoms: _100  and  _102
REMARK   38  A    between atoms: _102  and  _103
REMARK   39  A    between atoms: _102  and  _105
REMARK   40  A    between atoms: _105  and  _106
REMARK   41  A    between atoms: _111  and  _113
REMARK   42  A    between atoms: _113  and  _114
REMARK   43  A    between atoms: _113  and  _116
REMARK   44  A    between atoms: _116  and  _117
REMARK   45  A    between atoms: _117  and  _118
REMARK   46  A    between atoms: _121  and  _123
REMARK   47  A    between atoms: _123  and  _124
REMARK   48  A    between atoms: _123  and  _126
REMARK   49  A    between atoms: _129  and  _131
REMARK   50  A    between atoms: _131  and  _132
REMARK   51  A    between atoms: _131  and  _134
REMARK   52  A    between atoms: _134  and  _135
REMARK   53  A    between atoms: _140  and  _142
REMARK   54  A    between atoms: _142  and  _143
REMARK   55  A    between atoms: _142  and  _145
REMARK   56  A    between atoms: _148  and  _150
REMARK   57  A    between atoms: _150  and  _151
REMARK   58  A    between atoms: _150  and  _153
REMARK   59  A    between atoms: _153  and  _154
REMARK   60  A    between atoms: _160  and  _162
REMARK   61  A    between atoms: _162  and  _163
REMARK   62  A    between atoms: _162  and  _165
REMARK   63  A    between atoms: _165  and  _166
REMARK   64  A    between atoms: _171  and  _173
REMARK   65  A    between atoms: _173  and  _174
REMARK   66  A    between atoms: _173  and  _176
REMARK   67  A    between atoms: _176  and  _177
REMARK   68  A    between atoms: _182  and  _184
REMARK   69  A    between atoms: _184  and  _185
REMARK   70  A    between atoms: _184  and  _187
REMARK   71  A    between atoms: _187  and  _188
REMARK   72  A    between atoms: _193  and  _195
REMARK   73  A    between atoms: _195  and  _196
REMARK   74  A    between atoms: _195  and  _198
REMARK   75  A    between atoms: _198  and  _199
REMARK   76  A    between atoms: _204  and  _205
REMARK   77  A    between atoms: _207  and  _209
REMARK   78  A    between atoms: _209  and  _210
REMARK   79  A    between atoms: _209  and  _212
REMARK   80  A    between atoms: _212  and  _213
REMARK   81  A    between atoms: _218  and  _219
REMARK   82  A    between atoms: _221  and  _223
REMARK   83  A    between atoms: _223  and  _224
REMARK   84  A    between atoms: _223  and  _226
REMARK   85  A    between atoms: _226  and  _227
REMARK   86  A    between atoms: _227  and  _228
REMARK   87  A    between atoms: _230  and  _232
REMARK   88  A    between atoms: _232  and  _233
REMARK   89  A    between atoms: _232  and  _235
REMARK   90  A    between atoms: _235  and  _236
REMARK   91  A    between atoms: _246  and  _248
REMARK   92  A    between atoms: _248  and  _249
REMARK   93  A    between atoms: _248  and  _251
REMARK   94  A    between atoms: _251  and  _252
REMARK   95  A    between atoms: _255  and  _257
REMARK   96  A    between atoms: _257  and  _258
REMARK   97  A    between atoms: _257  and  _260
REMARK   98  A    between atoms: _260  and  _261
REMARK   99  A    between atoms: _261  and  _262
REMARK  100  A    between atoms: _265  and  _267
REMARK  101  A    between atoms: _267  and  _268
REMARK  102  A    between atoms: _267  and  _270
REMARK  103  A    between atoms: _270  and  _271
REMARK  104  A    between atoms: _276  and  _278
REMARK  105  A    between atoms: _278  and  _279
REMARK  106  A    between atoms: _281  and  _283
REMARK  107  A    between atoms: _283  and  _284
REMARK  108  A    between atoms: _287  and  _289
REMARK  109  A    between atoms: _289  and  _290
REMARK  110  A    between atoms: _293  and  _295
REMARK  111  A    between atoms: _295  and  _296
REMARK  112  A    between atoms: _295  and  _298
REMARK  113  A    between atoms: _298  and  _299
REMARK  114  A    between atoms: _309  and  _311
REMARK  115  A    between atoms: _311  and  _312
REMARK  116  A    between atoms: _311  and  _314
REMARK  117  A    between atoms: _314  and  _315
REMARK  118  A    between atoms: _317  and  _319
REMARK  119  A    between atoms: _319  and  _320
REMARK  120  A    between atoms: _319  and  _322
REMARK  121  A    between atoms: _322  and  _323
REMARK  122  A    between atoms: _328  and  _330
REMARK  123  A    between atoms: _330  and  _331
REMARK  124  A    between atoms: _330  and  _333
REMARK  125  A    between atoms: _333  and  _334
REMARK  126  A    between atoms: _340  and  _342
REMARK  127  A    between atoms: _342  and  _343
REMARK  128  A    between atoms: _342  and  _345
REMARK  129  A    between atoms: _345  and  _346
REMARK  130  A    between atoms: _346  and  _347
REMARK  131  A    between atoms: _350  and  _352
REMARK  132  A    between atoms: _352  and  _353
REMARK  133  A    between atoms: _352  and  _355
REMARK  134  A    between atoms: _355  and  _356
REMARK  135  A    between atoms: _366  and  _368
REMARK  136  A    between atoms: _368  and  _369
REMARK  137  A    between atoms: _368  and  _371
REMARK  138  A    between atoms: _371  and  _372
REMARK  139  A    between atoms: _372  and  _373
REMARK  140  A    between atoms: _376  and  _378
REMARK  141  A    between atoms: _378  and  _379
REMARK  142  A    between atoms: _378  and  _381
REMARK  143  A    between atoms: _381  and  _382
REMARK  144  A    between atoms: _382  and  _383
REMARK  145  A    between atoms: _383  and  _384
REMARK  146  A    between atoms: _384  and  _385
REMARK  147  A    between atoms: _389  and  _391
REMARK  148  A    between atoms: _391  and  _392
REMARK  149  A    between atoms: _391  and  _394
REMARK  150  A    between atoms: _394  and  _395
REMARK                            x       y       z     vdW  Elec       q    Type
REMARK                         _______ _______ _______ _____ _____    ______ ____
ROOT
ATOM      1  CA  TRP A   2       9.300  12.882   7.315  0.00  0.00    +0.141 C 
ENDROOT
BRANCH   1   3
ATOM      2  C   HIS A   1       7.633  14.754   7.246  0.00  0.00    +0.239 C 
ATOM      3  N   TRP A   2       8.807  14.228   7.642  0.00  0.00    -0.298 N 
ATOM      4  H   TRP A   2       9.420  14.827   8.232  0.00  0.00    +0.150 HD
ATOM      5  O   HIS A   1       6.998  14.381   6.242  0.00  0.00    -0.274 OA
BRANCH   2   6
ATOM      6  CA  HIS A   1       7.121  15.904   8.145  0.00  0.00    +0.151 C 
BRANCH   6   7
ATOM      7  N   HIS A   1       8.199  16.891   8.267  0.00  0.00    -0.238 NA
ATOM      8  H   HIS A   1       8.664  17.252   7.409  0.00  0.00    +0.142 HD
ENDBRANCH   6   7
BRANCH   6   9
ATOM      9  CB  HIS A   1       5.845  16.583   7.608  0.00  0.00    +0.074 C 
BRANCH   9  10
ATOM     10  CG  HIS A   1       4.587  15.814   7.867  0.00  0.00    +0.082 A 
ATOM     11  ND1 HIS A   1       3.449  16.405   8.381  0.00  0.00    -0.227 NA
ATOM     12  CE1 HIS A   1       2.491  15.494   8.482  0.00  0.00    +0.199 A 
ATOM     13  NE2 HIS A   1       2.966  14.339   8.048  0.00  0.00    -0.221 NA
ATOM     14  CD2 HIS A   1       4.274  14.509   7.660  0.00  0.00    +0.115 A 
ENDBRANCH   9  10
ENDBRANCH   6   9
ENDBRANCH   2   6
ENDBRANCH   1   3
BRANCH   1  15
ATOM     15  C   TRP A   2      10.183  12.792   6.073  0.00  0.00    +0.227 C 
ATOM     16  O   TRP A   2      10.812  11.778   5.869  0.00  0.00    -0.286 OA
ENDBRANCH   1  15
BRANCH   1  17
ATOM     17  CB  TRP A   2       8.190  11.818   7.215  0.00  0.00    +0.056 C 
BRANCH  17  18
ATOM     18  CG  TRP A   2       7.309  11.748   8.404  0.00  0.00    -0.002 A 
ATOM     19  CD1 TRP A   2       7.383  12.506   9.541  0.00  0.00    +0.068 A 
ATOM     20  NE1 TRP A   2       6.362  12.171  10.402  0.00  0.00    -0.352 N 
ATOM     21  HE1 TRP A   2       6.190  12.594  11.336  0.00  0.00    +0.166 HD
ATOM     22  CE2 TRP A   2       5.613  11.187   9.819  0.00  0.00    +0.056 A 
ATOM     23  CZ2 TRP A   2       4.475  10.530  10.289  0.00  0.00    +0.017 A 
ATOM     24  CH2 TRP A   2       3.902   9.590   9.465  0.00  0.00    +0.001 A 
ATOM     25  CZ3 TRP A   2       4.450   9.283   8.211  0.00  0.00    +0.000 A 
ATOM     26  CE3 TRP A   2       5.586   9.931   7.739  0.00  0.00    +0.001 A 
ATOM     27  CD2 TRP A   2       6.185  10.911   8.553  0.00  0.00    +0.013 A 
ENDBRANCH  17  18
ENDBRANCH   1  17
TORSDOF 8
REMARK  Name = ../refined-set-2016/1oif/1oif_pocket.pdb
REMARK  150 active torsions:
REMARK  status: ('A' for Active; 'I' for Inactive)
REMARK    1  A    between atoms: _1  and  _3
REMARK    2  A    between atoms: _3  and  _4
REMARK    3  A    between atoms: _7  and  _9
REMARK    4  A    between atoms: _9  and  _10
REMARK    5  A    between atoms: _9  and  _12
REMARK    6  A    between atoms: _12  and  _13
REMARK    7  A    between atoms: _16  and  _18
REMARK    8  A    between atoms: _18  and  _19
REMARK    9  A    between atoms: _22  and  _24
REMARK   10  A    between atoms: _24  and  _25
REMARK   11  A    between atoms: _24  and  _27
REMARK   12  A    between atoms: _27  and  _28
REMARK   13  A    between atoms: _30  and  _32
REMARK   14  A    between atoms: _32  and  _33
REMARK   15  A    between atoms: _32  and  _35
REMARK   16  A    between atoms: _35  and  _36
REMARK   17  A    between atoms: _41  and  _42
REMARK   18  A    between atoms: _44  and  _46
REMARK   19  A    between atoms: _46  and  _47
REMARK   20  A    between atoms: _46  and  _49
REMARK   21  A    between atoms: _49  and  _50
REMARK   22  A    between atoms: _50  and  _51
REMARK   23  A    between atoms: _56  and  _58
REMARK   24  A    between atoms: _58  and  _59
REMARK   25  A    between atoms: _58  and  _61
REMARK   26  A    between atoms: _61  and  _62
REMARK   27  A    between atoms: _62  and  _63
REMARK   28  A    between atoms: _63  and  _64
REMARK   29  A    between atoms: _73  and  _75
REMARK   30  A    between atoms: _75  and  _76
REMARK   31  A    between atoms: _75  and  _78
REMARK   32  A    between atoms: _78  and  _79
REMARK   33  A    between atoms: _84  and  _86
REMARK   34  A    between atoms: _86  and  _87
REMARK   35  A    between atoms: _86  and  _89
REMARK   36  A    between atoms: _89  and  _90
REMARK   37  A    between atoms: _100  and  _102
REMARK   38  A    between atoms: _102  and  _103
REMARK   39  A    between atoms: _102  and  _105
REMARK   40  A    between atoms: _105  and  _106
REMARK   41  A    between atoms: _111  and  _113
REMARK   42  A    between atoms: _113  and  _114
REMARK   43  A    between atoms: _113  and  _116
REMARK   44  A    between atoms: _116  and  _117
REMARK   45  A    between atoms: _117  and  _118
REMARK   46  A    between atoms: _121  and  _123
REMARK   47  A    between atoms: _123  and  _124
REMARK   48  A    between atoms: _123  and  _126
REMARK   49  A    between atoms: _129  and  _131
REMARK   50  A    between atoms: _131  and  _132
REMARK   51  A    between atoms: _131  and  _134
REMARK   52  A    between atoms: _134  and  _135
REMARK   53  A    between atoms: _140  and  _142
REMARK   54  A    between atoms: _142  and  _143
REMARK   55  A    between atoms: _142  and  _145
REMARK   56  A    between atoms: _148  and  _150
REMARK   57  A    between atoms: _150  and  _151
REMARK   58  A    between atoms: _150  and  _153
REMARK   59  A    between atoms: _153  and  _154
REMARK   60  A    between atoms: _160  and  _162
REMARK   61  A    between atoms: _162  and  _163
REMARK   62  A    between atoms: _162  and  _165
REMARK   63  A    between atoms: _165  and  _166
REMARK   64  A    between atoms: _171  and  _173
REMARK   65  A    between atoms: _173  and  _174
REMARK   66  A    between atoms: _173  and  _176
REMARK   67  A    between atoms: _176  and  _177
REMARK   68  A    between atoms: _182  and  _184
REMARK   69  A    between atoms: _184  and  _185
REMARK   70  A    between atoms: _184  and  _187
REMARK   71  A    between atoms: _187  and  _188
REMARK   72  A    between atoms: _193  and  _195
REMARK   73  A    between atoms: _195  and  _196
REMARK   74  A    between atoms: _195  and  _198
REMARK   75  A    between atoms: _198  and  _199
REMARK   76  A    between atoms: _204  and  _205
REMARK   77  A    between atoms: _207  and  _209
REMARK   78  A    between atoms: _209  and  _210
REMARK   79  A    between atoms: _209  and  _212
REMARK   80  A    between atoms: _212  and  _213
REMARK   81  A    between atoms: _218  and  _219
REMARK   82  A    between atoms: _221  and  _223
REMARK   83  A    between atoms: _223  and  _224
REMARK   84  A    between atoms: _223  and  _226
REMARK   85  A    between atoms: _226  and  _227
REMARK   86  A    between atoms: _227  and  _228
REMARK   87  A    between atoms: _230  and  _232
REMARK   88  A    between atoms: _232  and  _233
REMARK   89  A    between atoms: _232  and  _235
REMARK   90  A    between atoms: _235  and  _236
REMARK   91  A    between atoms: _246  and  _248
REMARK   92  A    between atoms: _248  and  _249
REMARK   93  A    between atoms: _248  and  _251
REMARK   94  A    between atoms: _251  and  _252
REMARK   95  A    between atoms: _255  and  _257
REMARK   96  A    between atoms: _257  and  _258
REMARK   97  A    between atoms: _257  and  _260
REMARK   98  A    between atoms: _260  and  _261
REMARK   99  A    between atoms: _261  and  _262
REMARK  100  A    between atoms: _265  and  _267
REMARK  101  A    between atoms: _267  and  _268
REMARK  102  A    between atoms: _267  and  _270
REMARK  103  A    between atoms: _270  and  _271
REMARK  104  A    between atoms: _276  and  _278
REMARK  105  A    between atoms: _278  and  _279
REMARK  106  A    between atoms: _281  and  _283
REMARK  107  A    between atoms: _283  and  _284
REMARK  108  A    between atoms: _287  and  _289
REMARK  109  A    between atoms: _289  and  _290
REMARK  110  A    between atoms: _293  and  _295
REMARK  111  A    between atoms: _295  and  _296
REMARK  112  A    between atoms: _295  and  _298
REMARK  113  A    between atoms: _298  and  _299
REMARK  114  A    between atoms: _309  and  _311
REMARK  115  A    between atoms: _311  and  _312
REMARK  116  A    between atoms: _311  and  _314
REMARK  117  A    between atoms: _314  and  _315
REMARK  118  A    between atoms: _317  and  _319
REMARK  119  A    between atoms: _319  and  _320
REMARK  120  A    between atoms: _319  and  _322
REMARK  121  A    between atoms: _322  and  _323
REMARK  122  A    between atoms: _328  and  _330
REMARK  123  A    between atoms: _330  and  _331
REMARK  124  A    between atoms: _330  and  _333
REMARK  125  A    between atoms: _333  and  _334
REMARK  126  A    between atoms: _340  and  _342
REMARK  127  A    between atoms: _342  and  _343
REMARK  128  A    between atoms: _342  and  _345
REMARK  129  A    between atoms: _345  and  _346
REMARK  130  A    between atoms: _346  and  _347
REMARK  131  A    between atoms: _350  and  _352
REMARK  132  A    between atoms: _352  and  _353
REMARK  133  A    between atoms: _352  and  _355
REMARK  134  A    between atoms: _355  and  _356
REMARK  135  A    between atoms: _366  and  _368
REMARK  136  A    between atoms: _368  and  _369
REMARK  137  A    between atoms: _368  and  _371
REMARK  138  A    between atoms: _371  and  _372
REMARK  139  A    between atoms: _372  and  _373
REMARK  140  A    between atoms: _376  and  _378
REMARK  141  A    between atoms: _378  and  _379
REMARK  142  A    between atoms: _378  and  _381
REMARK  143  A    between atoms: _381  and  _382
REMARK  144  A    between atoms: _382  and  _383
REMARK  145  A    between atoms: _383  and  _384
REMARK  146  A    between atoms: _384  and  _385
REMARK  147  A    between atoms: _389  and  _391
REMARK  148  A    between atoms: _391  and  _392
REMARK  149  A    between atoms: _391  and  _394
REMARK  150  A    between atoms: _394  and  _395
REMARK                            x       y       z     vdW  Elec       q    Type
REMARK                         _______ _______ _______ _____ _____    ______ ____
ROOT
ATOM      1  C   ASN A   1       5.656  14.443  13.541  0.00  0.00    +0.239 C 
ATOM      2  N   GLU A   2       4.975  14.058  14.620  0.00  0.00    -0.298 N 
ATOM      3  H   GLU A   2       4.450  14.777  15.157  0.00  0.00    +0.150 HD
ATOM      4  O   ASN A   1       6.369  13.670  12.882  0.00  0.00    -0.274 OA
ENDROOT
BRANCH   1   5
ATOM      5  CA  ASN A   1       5.443  15.867  13.072  0.00  0.00    +0.154 C 
BRANCH   5   6
ATOM      6  N   ASN A   1       6.661  16.649  13.107  0.00  0.00    -0.238 NA
ATOM      7  H   ASN A   1       7.287  16.638  12.276  0.00  0.00    +0.142 HD
ENDBRANCH   5   6
BRANCH   5   8
ATOM      8  CB  ASN A   1       4.840  15.785  11.655  0.00  0.00    +0.111 C 
BRANCH   8   9
ATOM      9  CG  ASN A   1       3.530  14.932  11.631  0.00  0.00    +0.221 C 
ATOM     10  OD1 ASN A   1       2.501  15.384  12.163  0.00  0.00    -0.275 OA
ATOM     11  ND2 ASN A   1       3.585  13.691  11.064  0.00  0.00    -0.329 N 
ATOM     12 HD21 ASN A   1       2.743  13.081  11.066  0.00  0.00    +0.145 HD
ATOM     13 HD22 ASN A   1       4.469  13.356  10.631  0.00  0.00    +0.145 HD
ENDBRANCH   8   9
ENDBRANCH   5   8
ENDBRANCH   1   5
BRANCH   2  14
ATOM     14  CA  GLU A   2       4.931  12.674  15.085  0.00  0.00    +0.137 C 
BRANCH  14  15
ATOM     15  C   GLU A   2       6.299  11.990  15.190  0.00  0.00    +0.227 C 
ATOM     16  O   GLU A   2       6.547  10.999  14.492  0.00  0.00    -0.286 OA
ENDBRANCH  14  15
BRANCH  14  17
ATOM     17  CB  GLU A   2       3.974  11.801  14.233  0.00  0.00    +0.039 C 
BRANCH  17  18
ATOM     18  CG  GLU A   2       2.588  12.394  14.053  0.00  0.00    +0.116 C 
BRANCH  18  19
ATOM     19  CD  GLU A   2       1.637  11.536  13.207  0.00  0.00    +0.365 C 
ATOM     20  OE2 GLU A   2       0.430  11.592  13.474  0.00  0.00    -0.246 OA
ATOM     21  OE1 GLU A   2       2.068  10.829  12.278  0.00  0.00    -0.246 OA
ENDBRANCH  18  19
ENDBRANCH  17  18
ENDBRANCH  14  17
ENDBRANCH   2  14
TORSDOF 9
REMARK  Name = ../refined-set-2016/1oif/1oif_pocket.pdb
REMARK  150 active torsions:
REMARK  status: ('A' for Active; 'I' for Inactive)
REMARK    1  A    between atoms: _1  and  _3
REMARK    2  A    between atoms: _3  and  _4
REMARK    3  A    between atoms: _7  and  _9
REMARK    4  A    between atoms: _9  and  _10
REMARK    5  A    between atoms: _9  and  _12
REMARK    6  A    between atoms: _12  and  _13
REMARK    7  A    between atoms: _16  and  _18
REMARK    8  A    between atoms: _18  and  _19
REMARK    9  A    between atoms: _22  and  _24
REMARK   10  A    between atoms: _24  and  _25
REMARK   11  A    between atoms: _24  and  _27
REMARK   12  A    between atoms: _27  and  _28
REMARK   13  A    between atoms: _30  and  _32
REMARK   14  A    between atoms: _32  and  _33
REMARK   15  A    between atoms: _32  and  _35
REMARK   16  A    between atoms: _35  and  _36
REMARK   17  A    between atoms: _41  and  _42
REMARK   18  A    between atoms: _44  and  _46
REMARK   19  A    between atoms: _46  and  _47
REMARK   20  A    between atoms: _46  and  _49
REMARK   21  A    between atoms: _49  and  _50
REMARK   22  A    between atoms: _50  and  _51
REMARK   23  A    between atoms: _56  and  _58
REMARK   24  A    between atoms: _58  and  _59
REMARK   25  A    between atoms: _58  and  _61
REMARK   26  A    between atoms: _61  and  _62
REMARK   27  A    between atoms: _62  and  _63
REMARK   28  A    between atoms: _63  and  _64
REMARK   29  A    between atoms: _73  and  _75
REMARK   30  A    between atoms: _75  and  _76
REMARK   31  A    between atoms: _75  and  _78
REMARK   32  A    between atoms: _78  and  _79
REMARK   33  A    between atoms: _84  and  _86
REMARK   34  A    between atoms: _86  and  _87
REMARK   35  A    between atoms: _86  and  _89
REMARK   36  A    between atoms: _89  and  _90
REMARK   37  A    between atoms: _100  and  _102
REMARK   38  A    between atoms: _102  and  _103
REMARK   39  A    between atoms: _102  and  _105
REMARK   40  A    between atoms: _105  and  _106
REMARK   41  A    between atoms: _111  and  _113
REMARK   42  A    between atoms: _113  and  _114
REMARK   43  A    between atoms: _113  and  _116
REMARK   44  A    between atoms: _116  and  _117
REMARK   45  A    between atoms: _117  and  _118
REMARK   46  A    between atoms: _121  and  _123
REMARK   47  A    between atoms: _123  and  _124
REMARK   48  A    between atoms: _123  and  _126
REMARK   49  A    between atoms: _129  and  _131
REMARK   50  A    between atoms: _131  and  _132
REMARK   51  A    between atoms: _131  and  _134
REMARK   52  A    between atoms: _134  and  _135
REMARK   53  A    between atoms: _140  and  _142
REMARK   54  A    between atoms: _142  and  _143
REMARK   55  A    between atoms: _142  and  _145
REMARK   56  A    between atoms: _148  and  _150
REMARK   57  A    between atoms: _150  and  _151
REMARK   58  A    between atoms: _150  and  _153
REMARK   59  A    between atoms: _153  and  _154
REMARK   60  A    between atoms: _160  and  _162
REMARK   61  A    between atoms: _162  and  _163
REMARK   62  A    between atoms: _162  and  _165
REMARK   63  A    between atoms: _165  and  _166
REMARK   64  A    between atoms: _171  and  _173
REMARK   65  A    between atoms: _173  and  _174
REMARK   66  A    between atoms: _173  and  _176
REMARK   67  A    between atoms: _176  and  _177
REMARK   68  A    between atoms: _182  and  _184
REMARK   69  A    between atoms: _184  and  _185
REMARK   70  A    between atoms: _184  and  _187
REMARK   71  A    between atoms: _187  and  _188
REMARK   72  A    between atoms: _193  and  _195
REMARK   73  A    between atoms: _195  and  _196
REMARK   74  A    between atoms: _195  and  _198
REMARK   75  A    between atoms: _198  and  _199
REMARK   76  A    between atoms: _204  and  _205
REMARK   77  A    between atoms: _207  and  _209
REMARK   78  A    between atoms: _209  and  _210
REMARK   79  A    between atoms: _209  and  _212
REMARK   80  A    between atoms: _212  and  _213
REMARK   81  A    between atoms: _218  and  _219
REMARK   82  A    between atoms: _221  and  _223
REMARK   83  A    between atoms: _223  and  _224
REMARK   84  A    between atoms: _223  and  _226
REMARK   85  A    between atoms: _226  and  _227
REMARK   86  A    between atoms: _227  and  _228
REMARK   87  A    between atoms: _230  and  _232
REMARK   88  A    between atoms: _232  and  _233
REMARK   89  A    between atoms: _232  and  _235
REMARK   90  A    between atoms: _235  and  _236
REMARK   91  A    between atoms: _246  and  _248
REMARK   92  A    between atoms: _248  and  _249
REMARK   93  A    between atoms: _248  and  _251
REMARK   94  A    between atoms: _251  and  _252
REMARK   95  A    between atoms: _255  and  _257
REMARK   96  A    between atoms: _257  and  _258
REMARK   97  A    between atoms: _257  and  _260
REMARK   98  A    between atoms: _260  and  _261
REMARK   99  A    between atoms: _261  and  _262
REMARK  100  A    between atoms: _265  and  _267
REMARK  101  A    between atoms: _267  and  _268
REMARK  102  A    between atoms: _267  and  _270
REMARK  103  A    between atoms: _270  and  _271
REMARK  104  A    between atoms: _276  and  _278
REMARK  105  A    between atoms: _278  and  _279
REMARK  106  A    between atoms: _281  and  _283
REMARK  107  A    between atoms: _283  and  _284
REMARK  108  A    between atoms: _287  and  _289
REMARK  109  A    between atoms: _289  and  _290
REMARK  110  A    between atoms: _293  and  _295
REMARK  111  A    between atoms: _295  and  _296
REMARK  112  A    between atoms: _295  and  _298
REMARK  113  A    between atoms: _298  and  _299
REMARK  114  A    between atoms: _309  and  _311
REMARK  115  A    between atoms: _311  and  _312
REMARK  116  A    between atoms: _311  and  _314
REMARK  117  A    between atoms: _314  and  _315
REMARK  118  A    between atoms: _317  and  _319
REMARK  119  A    between atoms: _319  and  _320
REMARK  120  A    between atoms: _319  and  _322
REMARK  121  A    between atoms: _322  and  _323
REMARK  122  A    between atoms: _328  and  _330
REMARK  123  A    between atoms: _330  and  _331
REMARK  124  A    between atoms: _330  and  _333
REMARK  125  A    between atoms: _333  and  _334
REMARK  126  A    between atoms: _340  and  _342
REMARK  127  A    between atoms: _342  and  _343
REMARK  128  A    between atoms: _342  and  _345
REMARK  129  A    between atoms: _345  and  _346
REMARK  130  A    between atoms: _346  and  _347
REMARK  131  A    between atoms: _350  and  _352
REMARK  132  A    between atoms: _352  and  _353
REMARK  133  A    between atoms: _352  and  _355
REMARK  134  A    between atoms: _355  and  _356
REMARK  135  A    between atoms: _366  and  _368
REMARK  136  A    between atoms: _368  and  _369
REMARK  137  A    between atoms: _368  and  _371
REMARK  138  A    between atoms: _371  and  _372
REMARK  139  A    between atoms: _372  and  _373
REMARK  140  A    between atoms: _376  and  _378
REMARK  141  A    between atoms: _378  and  _379
REMARK  142  A    between atoms: _378  and  _381
REMARK  143  A    between atoms: _381  and  _382
REMARK  144  A    between atoms: _382  and  _383
REMARK  145  A    between atoms: _383  and  _384
REMARK  146  A    between atoms: _384  and  _385
REMARK  147  A    between atoms: _389  and  _391
REMARK  148  A    between atoms: _391  and  _392
REMARK  149  A    between atoms: _391  and  _394
REMARK  150  A    between atoms: _394  and  _395
REMARK                            x       y       z     vdW  Elec       q    Type
REMARK                         _______ _______ _______ _____ _____    ______ ____
ROOT
ATOM      1  CA  VAL A   1       6.438   7.337  14.099  0.00  0.00    +0.133 C 
ENDROOT
BRANCH   1   2
ATOM      2  CB  VAL A   1       5.323   7.913  13.171  0.00  0.00    +0.023 C 
ATOM      3  CG2 VAL A   1       3.971   7.904  13.856  0.00  0.00    +0.002 C 
ATOM      4  CG1 VAL A   1       5.251   7.142  11.827  0.00  0.00    +0.002 C 
ENDBRANCH   1   2
BRANCH   1   5
ATOM      5  N   VAL A   1       6.537   8.055  15.374  0.00  0.00    -0.239 NA
ATOM      6  H   VAL A   1       5.950   8.900  15.528  0.00  0.00    +0.142 HD
ENDBRANCH   1   5
BRANCH   1   7
ATOM      7  C   VAL A   1       7.804   7.412  13.403  0.00  0.00    +0.224 C 
ATOM      8  O   VAL A   1       8.299   6.412  12.954  0.00  0.00    -0.287 OA
ENDBRANCH   1   7
TORSDOF 3
REMARK  Name = ../refined-set-2016/1oif/1oif_pocket.pdb
REMARK  150 active torsions:
REMARK  status: ('A' for Active; 'I' for Inactive)
REMARK    1  A    between atoms: _1  and  _3
REMARK    2  A    between atoms: _3  and  _4
REMARK    3  A    between atoms: _7  and  _9
REMARK    4  A    between atoms: _9  and  _10
REMARK    5  A    between atoms: _9  and  _12
REMARK    6  A    between atoms: _12  and  _13
REMARK    7  A    between atoms: _16  and  _18
REMARK    8  A    between atoms: _18  and  _19
REMARK    9  A    between atoms: _22  and  _24
REMARK   10  A    between atoms: _24  and  _25
REMARK   11  A    between atoms: _24  and  _27
REMARK   12  A    between atoms: _27  and  _28
REMARK   13  A    between atoms: _30  and  _32
REMARK   14  A    between atoms: _32  and  _33
REMARK   15  A    between atoms: _32  and  _35
REMARK   16  A    between atoms: _35  and  _36
REMARK   17  A    between atoms: _41  and  _42
REMARK   18  A    between atoms: _44  and  _46
REMARK   19  A    between atoms: _46  and  _47
REMARK   20  A    between atoms: _46  and  _49
REMARK   21  A    between atoms: _49  and  _50
REMARK   22  A    between atoms: _50  and  _51
REMARK   23  A    between atoms: _56  and  _58
REMARK   24  A    between atoms: _58  and  _59
REMARK   25  A    between atoms: _58  and  _61
REMARK   26  A    between atoms: _61  and  _62
REMARK   27  A    between atoms: _62  and  _63
REMARK   28  A    between atoms: _63  and  _64
REMARK   29  A    between atoms: _73  and  _75
REMARK   30  A    between atoms: _75  and  _76
REMARK   31  A    between atoms: _75  and  _78
REMARK   32  A    between atoms: _78  and  _79
REMARK   33  A    between atoms: _84  and  _86
REMARK   34  A    between atoms: _86  and  _87
REMARK   35  A    between atoms: _86  and  _89
REMARK   36  A    between atoms: _89  and  _90
REMARK   37  A    between atoms: _100  and  _102
REMARK   38  A    between atoms: _102  and  _103
REMARK   39  A    between atoms: _102  and  _105
REMARK   40  A    between atoms: _105  and  _106
REMARK   41  A    between atoms: _111  and  _113
REMARK   42  A    between atoms: _113  and  _114
REMARK   43  A    between atoms: _113  and  _116
REMARK   44  A    between atoms: _116  and  _117
REMARK   45  A    between atoms: _117  and  _118
REMARK   46  A    between atoms: _121  and  _123
REMARK   47  A    between atoms: _123  and  _124
REMARK   48  A    between atoms: _123  and  _126
REMARK   49  A    between atoms: _129  and  _131
REMARK   50  A    between atoms: _131  and  _132
REMARK   51  A    between atoms: _131  and  _134
REMARK   52  A    between atoms: _134  and  _135
REMARK   53  A    between atoms: _140  and  _142
REMARK   54  A    between atoms: _142  and  _143
REMARK   55  A    between atoms: _142  and  _145
REMARK   56  A    between atoms: _148  and  _150
REMARK   57  A    between atoms: _150  and  _151
REMARK   58  A    between atoms: _150  and  _153
REMARK   59  A    between atoms: _153  and  _154
REMARK   60  A    between atoms: _160  and  _162
REMARK   61  A    between atoms: _162  and  _163
REMARK   62  A    between atoms: _162  and  _165
REMARK   63  A    between atoms: _165  and  _166
REMARK   64  A    between atoms: _171  and  _173
REMARK   65  A    between atoms: _173  and  _174
REMARK   66  A    between atoms: _173  and  _176
REMARK   67  A    between atoms: _176  and  _177
REMARK   68  A    between atoms: _182  and  _184
REMARK   69  A    between atoms: _184  and  _185
REMARK   70  A    between atoms: _184  and  _187
REMARK   71  A    between atoms: _187  and  _188
REMARK   72  A    between atoms: _193  and  _195
REMARK   73  A    between atoms: _195  and  _196
REMARK   74  A    between atoms: _195  and  _198
REMARK   75  A    between atoms: _198  and  _199
REMARK   76  A    between atoms: _204  and  _205
REMARK   77  A    between atoms: _207  and  _209
REMARK   78  A    between atoms: _209  and  _210
REMARK   79  A    between atoms: _209  and  _212
REMARK   80  A    between atoms: _212  and  _213
REMARK   81  A    between atoms: _218  and  _219
REMARK   82  A    between atoms: _221  and  _223
REMARK   83  A    between atoms: _223  and  _224
REMARK   84  A    between atoms: _223  and  _226
REMARK   85  A    between atoms: _226  and  _227
REMARK   86  A    between atoms: _227  and  _228
REMARK   87  A    between atoms: _230  and  _232
REMARK   88  A    between atoms: _232  and  _233
REMARK   89  A    between atoms: _232  and  _235
REMARK   90  A    between atoms: _235  and  _236
REMARK   91  A    between atoms: _246  and  _248
REMARK   92  A    between atoms: _248  and  _249
REMARK   93  A    between atoms: _248  and  _251
REMARK   94  A    between atoms: _251  and  _252
REMARK   95  A    between atoms: _255  and  _257
REMARK   96  A    between atoms: _257  and  _258
REMARK   97  A    between atoms: _257  and  _260
REMARK   98  A    between atoms: _260  and  _261
REMARK   99  A    between atoms: _261  and  _262
REMARK  100  A    between atoms: _265  and  _267
REMARK  101  A    between atoms: _267  and  _268
REMARK  102  A    between atoms: _267  and  _270
REMARK  103  A    between atoms: _270  and  _271
REMARK  104  A    between atoms: _276  and  _278
REMARK  105  A    between atoms: _278  and  _279
REMARK  106  A    between atoms: _281  and  _283
REMARK  107  A    between atoms: _283  and  _284
REMARK  108  A    between atoms: _287  and  _289
REMARK  109  A    between atoms: _289  and  _290
REMARK  110  A    between atoms: _293  and  _295
REMARK  111  A    between atoms: _295  and  _296
REMARK  112  A    between atoms: _295  and  _298
REMARK  113  A    between atoms: _298  and  _299
REMARK  114  A    between atoms: _309  and  _311
REMARK  115  A    between atoms: _311  and  _312
REMARK  116  A    between atoms: _311  and  _314
REMARK  117  A    between atoms: _314  and  _315
REMARK  118  A    between atoms: _317  and  _319
REMARK  119  A    between atoms: _319  and  _320
REMARK  120  A    between atoms: _319  and  _322
REMARK  121  A    between atoms: _322  and  _323
REMARK  122  A    between atoms: _328  and  _330
REMARK  123  A    between atoms: _330  and  _331
REMARK  124  A    between atoms: _330  and  _333
REMARK  125  A    between atoms: _333  and  _334
REMARK  126  A    between atoms: _340  and  _342
REMARK  127  A    between atoms: _342  and  _343
REMARK  128  A    between atoms: _342  and  _345
REMARK  129  A    between atoms: _345  and  _346
REMARK  130  A    between atoms: _346  and  _347
REMARK  131  A    between atoms: _350  and  _352
REMARK  132  A    between atoms: _352  and  _353
REMARK  133  A    between atoms: _352  and  _355
REMARK  134  A    between atoms: _355  and  _356
REMARK  135  A    between atoms: _366  and  _368
REMARK  136  A    between atoms: _368  and  _369
REMARK  137  A    between atoms: _368  and  _371
REMARK  138  A    between atoms: _371  and  _372
REMARK  139  A    between atoms: _372  and  _373
REMARK  140  A    between atoms: _376  and  _378
REMARK  141  A    between atoms: _378  and  _379
REMARK  142  A    between atoms: _378  and  _381
REMARK  143  A    between atoms: _381  and  _382
REMARK  144  A    between atoms: _382  and  _383
REMARK  145  A    between atoms: _383  and  _384
REMARK  146  A    between atoms: _384  and  _385
REMARK  147  A    between atoms: _389  and  _391
REMARK  148  A    between atoms: _391  and  _392
REMARK  149  A    between atoms: _391  and  _394
REMARK  150  A    between atoms: _394  and  _395
REMARK                            x       y       z     vdW  Elec       q    Type
REMARK                         _______ _______ _______ _____ _____    ______ ____
ROOT
ATOM      1  CB  HIS A   1       7.995   4.856   7.841  0.00  0.00    +0.072 C 
ENDROOT
BRANCH   1   2
ATOM      2  CG  HIS A   1       6.513   5.035   7.870  0.00  0.00    +0.082 A 
ATOM      3  ND1 HIS A   1       5.893   6.027   8.615  0.00  0.00    -0.227 NA
ATOM      4  CE1 HIS A   1       4.581   5.952   8.433  0.00  0.00    +0.199 A 
ATOM      5  NE2 HIS A   1       4.330   4.956   7.597  0.00  0.00    -0.221 NA
ATOM      6  CD2 HIS A   1       5.519   4.354   7.244  0.00  0.00    +0.115 A 
ENDBRANCH   1   2
BRANCH   1   7
ATOM      7  CA  HIS A   1       8.472   3.821   6.815  0.00  0.00    +0.139 C 
BRANCH   7   8
ATOM      8  N   HIS A   1       8.357   2.498   7.399  0.00  0.00    -0.239 NA
ATOM      9  H   HIS A   1       8.878   2.281   8.272  0.00  0.00    +0.142 HD
ENDBRANCH   7   8
BRANCH   7  10
ATOM     10  C   HIS A   1       9.932   4.045   6.532  0.00  0.00    +0.224 C 
ATOM     11  O   HIS A   1      10.769   3.358   7.123  0.00  0.00    -0.287 OA
ENDBRANCH   7  10
ENDBRANCH   1   7
TORSDOF 4
REMARK  Name = ../refined-set-2016/1oif/1oif_pocket.pdb
REMARK  150 active torsions:
REMARK  status: ('A' for Active; 'I' for Inactive)
REMARK    1  A    between atoms: _1  and  _3
REMARK    2  A    between atoms: _3  and  _4
REMARK    3  A    between atoms: _7  and  _9
REMARK    4  A    between atoms: _9  and  _10
REMARK    5  A    between atoms: _9  and  _12
REMARK    6  A    between atoms: _12  and  _13
REMARK    7  A    between atoms: _16  and  _18
REMARK    8  A    between atoms: _18  and  _19
REMARK    9  A    between atoms: _22  and  _24
REMARK   10  A    between atoms: _24  and  _25
REMARK   11  A    between atoms: _24  and  _27
REMARK   12  A    between atoms: _27  and  _28
REMARK   13  A    between atoms: _30  and  _32
REMARK   14  A    between atoms: _32  and  _33
REMARK   15  A    between atoms: _32  and  _35
REMARK   16  A    between atoms: _35  and  _36
REMARK   17  A    between atoms: _41  and  _42
REMARK   18  A    between atoms: _44  and  _46
REMARK   19  A    between atoms: _46  and  _47
REMARK   20  A    between atoms: _46  and  _49
REMARK   21  A    between atoms: _49  and  _50
REMARK   22  A    between atoms: _50  and  _51
REMARK   23  A    between atoms: _56  and  _58
REMARK   24  A    between atoms: _58  and  _59
REMARK   25  A    between atoms: _58  and  _61
REMARK   26  A    between atoms: _61  and  _62
REMARK   27  A    between atoms: _62  and  _63
REMARK   28  A    between atoms: _63  and  _64
REMARK   29  A    between atoms: _73  and  _75
REMARK   30  A    between atoms: _75  and  _76
REMARK   31  A    between atoms: _75  and  _78
REMARK   32  A    between atoms: _78  and  _79
REMARK   33  A    between atoms: _84  and  _86
REMARK   34  A    between atoms: _86  and  _87
REMARK   35  A    between atoms: _86  and  _89
REMARK   36  A    between atoms: _89  and  _90
REMARK   37  A    between atoms: _100  and  _102
REMARK   38  A    between atoms: _102  and  _103
REMARK   39  A    between atoms: _102  and  _105
REMARK   40  A    between atoms: _105  and  _106
REMARK   41  A    between atoms: _111  and  _113
REMARK   42  A    between atoms: _113  and  _114
REMARK   43  A    between atoms: _113  and  _116
REMARK   44  A    between atoms: _116  and  _117
REMARK   45  A    between atoms: _117  and  _118
REMARK   46  A    between atoms: _121  and  _123
REMARK   47  A    between atoms: _123  and  _124
REMARK   48  A    between atoms: _123  and  _126
REMARK   49  A    between atoms: _129  and  _131
REMARK   50  A    between atoms: _131  and  _132
REMARK   51  A    between atoms: _131  and  _134
REMARK   52  A    between atoms: _134  and  _135
REMARK   53  A    between atoms: _140  and  _142
REMARK   54  A    between atoms: _142  and  _143
REMARK   55  A    between atoms: _142  and  _145
REMARK   56  A    between atoms: _148  and  _150
REMARK   57  A    between atoms: _150  and  _151
REMARK   58  A    between atoms: _150  and  _153
REMARK   59  A    between atoms: _153  and  _154
REMARK   60  A    between atoms: _160  and  _162
REMARK   61  A    between atoms: _162  and  _163
REMARK   62  A    between atoms: _162  and  _165
REMARK   63  A    between atoms: _165  and  _166
REMARK   64  A    between atoms: _171  and  _173
REMARK   65  A    between atoms: _173  and  _174
REMARK   66  A    between atoms: _173  and  _176
REMARK   67  A    between atoms: _176  and  _177
REMARK   68  A    between atoms: _182  and  _184
REMARK   69  A    between atoms: _184  and  _185
REMARK   70  A    between atoms: _184  and  _187
REMARK   71  A    between atoms: _187  and  _188
REMARK   72  A    between atoms: _193  and  _195
REMARK   73  A    between atoms: _195  and  _196
REMARK   74  A    between atoms: _195  and  _198
REMARK   75  A    between atoms: _198  and  _199
REMARK   76  A    between atoms: _204  and  _205
REMARK   77  A    between atoms: _207  and  _209
REMARK   78  A    between atoms: _209  and  _210
REMARK   79  A    between atoms: _209  and  _212
REMARK   80  A    between atoms: _212  and  _213
REMARK   81  A    between atoms: _218  and  _219
REMARK   82  A    between atoms: _221  and  _223
REMARK   83  A    between atoms: _223  and  _224
REMARK   84  A    between atoms: _223  and  _226
REMARK   85  A    between atoms: _226  and  _227
REMARK   86  A    between atoms: _227  and  _228
REMARK   87  A    between atoms: _230  and  _232
REMARK   88  A    between atoms: _232  and  _233
REMARK   89  A    between atoms: _232  and  _235
REMARK   90  A    between atoms: _235  and  _236
REMARK   91  A    between atoms: _246  and  _248
REMARK   92  A    between atoms: _248  and  _249
REMARK   93  A    between atoms: _248  and  _251
REMARK   94  A    between atoms: _251  and  _252
REMARK   95  A    between atoms: _255  and  _257
REMARK   96  A    between atoms: _257  and  _258
REMARK   97  A    between atoms: _257  and  _260
REMARK   98  A    between atoms: _260  and  _261
REMARK   99  A    between atoms: _261  and  _262
REMARK  100  A    between atoms: _265  and  _267
REMARK  101  A    between atoms: _267  and  _268
REMARK  102  A    between atoms: _267  and  _270
REMARK  103  A    between atoms: _270  and  _271
REMARK  104  A    between atoms: _276  and  _278
REMARK  105  A    between atoms: _278  and  _279
REMARK  106  A    between atoms: _281  and  _283
REMARK  107  A    between atoms: _283  and  _284
REMARK  108  A    between atoms: _287  and  _289
REMARK  109  A    between atoms: _289  and  _290
REMARK  110  A    between atoms: _293  and  _295
REMARK  111  A    between atoms: _295  and  _296
REMARK  112  A    between atoms: _295  and  _298
REMARK  113  A    between atoms: _298  and  _299
REMARK  114  A    between atoms: _309  and  _311
REMARK  115  A    between atoms: _311  and  _312
REMARK  116  A    between atoms: _311  and  _314
REMARK  117  A    between atoms: _314  and  _315
REMARK  118  A    between atoms: _317  and  _319
REMARK  119  A    between atoms: _319  and  _320
REMARK  120  A    between atoms: _319  and  _322
REMARK  121  A    between atoms: _322  and  _323
REMARK  122  A    between atoms: _328  and  _330
REMARK  123  A    between atoms: _330  and  _331
REMARK  124  A    between atoms: _330  and  _333
REMARK  125  A    between atoms: _333  and  _334
REMARK  126  A    between atoms: _340  and  _342
REMARK  127  A    between atoms: _342  and  _343
REMARK  128  A    between atoms: _342  and  _345
REMARK  129  A    between atoms: _345  and  _346
REMARK  130  A    between atoms: _346  and  _347
REMARK  131  A    between atoms: _350  and  _352
REMARK  132  A    between atoms: _352  and  _353
REMARK  133  A    between atoms: _352  and  _355
REMARK  134  A    between atoms: _355  and  _356
REMARK  135  A    between atoms: _366  and  _368
REMARK  136  A    between atoms: _368  and  _369
REMARK  137  A    between atoms: _368  and  _371
REMARK  138  A    between atoms: _371  and  _372
REMARK  139  A    between atoms: _372  and  _373
REMARK  140  A    between atoms: _376  and  _378
REMARK  141  A    between atoms: _378  and  _379
REMARK  142  A    between atoms: _378  and  _381
REMARK  143  A    between atoms: _381  and  _382
REMARK  144  A    between atoms: _382  and  _383
REMARK  145  A    between atoms: _383  and  _384
REMARK  146  A    between atoms: _384  and  _385
REMARK  147  A    between atoms: _389  and  _391
REMARK  148  A    between atoms: _391  and  _392
REMARK  149  A    between atoms: _391  and  _394
REMARK  150  A    between atoms: _394  and  _395
REMARK                            x       y       z     vdW  Elec       q    Type
REMARK                         _______ _______ _______ _____ _____    ______ ____
ROOT
ATOM      1  C   PHE A   2       1.316  13.283  18.121  0.00  0.00    +0.241 C 
ATOM      2  O   PHE A   2       0.225  13.826  18.135  0.00  0.00    -0.273 OA
ATOM      3  N   ASN A   3       1.524  12.026  17.718  0.00  0.00    -0.297 N 
ATOM      4  H   ASN A   3       2.502  11.710  17.561  0.00  0.00    +0.150 HD
ENDROOT
BRANCH   1   5
ATOM      5  CA  PHE A   2       2.545  14.034  18.582  0.00  0.00    +0.153 C 
BRANCH   5   7
ATOM      6  C   VAL A   1       3.370  16.051  17.506  0.00  0.00    +0.238 C 
ATOM      7  N   PHE A   2       2.460  15.460  18.271  0.00  0.00    -0.297 N 
ATOM      8  H   PHE A   2       1.673  16.021  18.656  0.00  0.00    +0.150 HD
ATOM      9  O   VAL A   1       4.345  15.448  17.032  0.00  0.00    -0.274 OA
BRANCH   6  10
ATOM     10  CA  VAL A   1       3.134  17.512  17.182  0.00  0.00    +0.145 C 
BRANCH  10  11
ATOM     11  CB  VAL A   1       2.654  17.624  15.701  0.00  0.00    +0.025 C 
ATOM     12  CG2 VAL A   1       2.163  19.029  15.379  0.00  0.00    +0.002 C 
ATOM     13  CG1 VAL A   1       1.613  16.575  15.374  0.00  0.00    +0.002 C 
ENDBRANCH  10  11
BRANCH  10  14
ATOM     14  N   VAL A   1       4.345  18.297  17.397  0.00  0.00    -0.238 NA
ATOM     15  H   VAL A   1       5.186  18.092  16.820  0.00  0.00    +0.142 HD
ENDBRANCH  10  14
ENDBRANCH   6  10
ENDBRANCH   5   7
BRANCH   5  16
ATOM     16  CB  PHE A   2       2.746  13.830  20.088  0.00  0.00    +0.055 C 
BRANCH  16  17
ATOM     17  CG  PHE A   2       3.800  14.730  20.668  0.00  0.00    -0.020 A 
ATOM     18  CD2 PHE A   2       3.440  15.836  21.417  0.00  0.00    -0.004 A 
ATOM     19  CE2 PHE A   2       4.386  16.663  21.956  0.00  0.00    -0.000 A 
ATOM     20  CZ  PHE A   2       5.722  16.425  21.718  0.00  0.00    -0.000 A 
ATOM     21  CE1 PHE A   2       6.091  15.341  20.933  0.00  0.00    -0.000 A 
ATOM     22  CD1 PHE A   2       5.136  14.500  20.422  0.00  0.00    -0.004 A 
ENDBRANCH  16  17
ENDBRANCH   5  16
ENDBRANCH   1   5
BRANCH   3  23
ATOM     23  CA  ASN A   3       0.452  11.088  17.491  0.00  0.00    +0.158 C 
BRANCH  23  24
ATOM     24  C   ASN A   3      -0.050  10.495  18.831  0.00  0.00    +0.241 C 
ATOM     25  O   ASN A   3       0.739  10.282  19.782  0.00  0.00    -0.273 OA
ATOM     26  N   ASN A   4      -1.347  10.218  18.906  0.00  0.00    -0.298 N 
ATOM     27  H   ASN A   4      -1.973  10.419  18.100  0.00  0.00    +0.150 HD
BRANCH  26  28
ATOM     28  CA  ASN A   4      -1.891   9.626  20.134  0.00  0.00    +0.146 C 
BRANCH  28  29
ATOM     29  C   ASN A   4      -3.023   8.700  19.807  0.00  0.00    +0.227 C 
ATOM     30  O   ASN A   4      -3.824   8.994  18.904  0.00  0.00    -0.286 OA
ENDBRANCH  28  29
BRANCH  28  31
ATOM     31  CB  ASN A   4      -2.379  10.692  21.155  0.00  0.00    +0.112 C 
BRANCH  31  32
ATOM     32  CG  ASN A   4      -1.423  11.849  21.319  0.00  0.00    +0.222 C 
ATOM     33  OD1 ASN A   4      -0.572  11.841  22.200  0.00  0.00    -0.275 OA
ATOM     34  ND2 ASN A   4      -1.576  12.874  20.482  0.00  0.00    -0.329 N 
ATOM     35 HD21 ASN A   4      -0.960  13.708  20.563  0.00  0.00    +0.145 HD
ATOM     36 HD22 ASN A   4      -2.312  12.840  19.748  0.00  0.00    +0.145 HD
ENDBRANCH  31  32
ENDBRANCH  28  31
ENDBRANCH  26  28
ENDBRANCH  23  24
BRANCH  23  37
ATOM     37  CB  ASN A   3       0.907   9.942  16.572  0.00  0.00    +0.114 C 
BRANCH  37  38
ATOM     38  CG  ASN A   3       2.154   9.198  17.087  0.00  0.00    +0.222 C 
ATOM     39  ND2 ASN A   3       1.946   8.001  17.671  0.00  0.00    -0.329 N 
ATOM     40 HD21 ASN A   3       2.753   7.448  18.025  0.00  0.00    +0.145 HD
ATOM     41 HD22 ASN A   3       0.979   7.631  17.768  0.00  0.00    +0.145 HD
ATOM     42  OD1 ASN A   3       3.297   9.687  16.947  0.00  0.00    -0.275 OA
ENDBRANCH  37  38
ENDBRANCH  23  37
ENDBRANCH   3  23
TORSDOF 15
REMARK  Name = ../refined-set-2016/1oif/1oif_pocket.pdb
REMARK  150 active torsions:
REMARK  status: ('A' for Active; 'I' for Inactive)
REMARK    1  A    between atoms: _1  and  _3
REMARK    2  A    between atoms: _3  and  _4
REMARK    3  A    between atoms: _7  and  _9
REMARK    4  A    between atoms: _9  and  _10
REMARK    5  A    between atoms: _9  and  _12
REMARK    6  A    between atoms: _12  and  _13
REMARK    7  A    between atoms: _16  and  _18
REMARK    8  A    between atoms: _18  and  _19
REMARK    9  A    between atoms: _22  and  _24
REMARK   10  A    between atoms: _24  and  _25
REMARK   11  A    between atoms: _24  and  _27
REMARK   12  A    between atoms: _27  and  _28
REMARK   13  A    between atoms: _30  and  _32
REMARK   14  A    between atoms: _32  and  _33
REMARK   15  A    between atoms: _32  and  _35
REMARK   16  A    between atoms: _35  and  _36
REMARK   17  A    between atoms: _41  and  _42
REMARK   18  A    between atoms: _44  and  _46
REMARK   19  A    between atoms: _46  and  _47
REMARK   20  A    between atoms: _46  and  _49
REMARK   21  A    between atoms: _49  and  _50
REMARK   22  A    between atoms: _50  and  _51
REMARK   23  A    between atoms: _56  and  _58
REMARK   24  A    between atoms: _58  and  _59
REMARK   25  A    between atoms: _58  and  _61
REMARK   26  A    between atoms: _61  and  _62
REMARK   27  A    between atoms: _62  and  _63
REMARK   28  A    between atoms: _63  and  _64
REMARK   29  A    between atoms: _73  and  _75
REMARK   30  A    between atoms: _75  and  _76
REMARK   31  A    between atoms: _75  and  _78
REMARK   32  A    between atoms: _78  and  _79
REMARK   33  A    between atoms: _84  and  _86
REMARK   34  A    between atoms: _86  and  _87
REMARK   35  A    between atoms: _86  and  _89
REMARK   36  A    between atoms: _89  and  _90
REMARK   37  A    between atoms: _100  and  _102
REMARK   38  A    between atoms: _102  and  _103
REMARK   39  A    between atoms: _102  and  _105
REMARK   40  A    between atoms: _105  and  _106
REMARK   41  A    between atoms: _111  and  _113
REMARK   42  A    between atoms: _113  and  _114
REMARK   43  A    between atoms: _113  and  _116
REMARK   44  A    between atoms: _116  and  _117
REMARK   45  A    between atoms: _117  and  _118
REMARK   46  A    between atoms: _121  and  _123
REMARK   47  A    between atoms: _123  and  _124
REMARK   48  A    between atoms: _123  and  _126
REMARK   49  A    between atoms: _129  and  _131
REMARK   50  A    between atoms: _131  and  _132
REMARK   51  A    between atoms: _131  and  _134
REMARK   52  A    between atoms: _134  and  _135
REMARK   53  A    between atoms: _140  and  _142
REMARK   54  A    between atoms: _142  and  _143
REMARK   55  A    between atoms: _142  and  _145
REMARK   56  A    between atoms: _148  and  _150
REMARK   57  A    between atoms: _150  and  _151
REMARK   58  A    between atoms: _150  and  _153
REMARK   59  A    between atoms: _153  and  _154
REMARK   60  A    between atoms: _160  and  _162
REMARK   61  A    between atoms: _162  and  _163
REMARK   62  A    between atoms: _162  and  _165
REMARK   63  A    between atoms: _165  and  _166
REMARK   64  A    between atoms: _171  and  _173
REMARK   65  A    between atoms: _173  and  _174
REMARK   66  A    between atoms: _173  and  _176
REMARK   67  A    between atoms: _176  and  _177
REMARK   68  A    between atoms: _182  and  _184
REMARK   69  A    between atoms: _184  and  _185
REMARK   70  A    between atoms: _184  and  _187
REMARK   71  A    between atoms: _187  and  _188
REMARK   72  A    between atoms: _193  and  _195
REMARK   73  A    between atoms: _195  and  _196
REMARK   74  A    between atoms: _195  and  _198
REMARK   75  A    between atoms: _198  and  _199
REMARK   76  A    between atoms: _204  and  _205
REMARK   77  A    between atoms: _207  and  _209
REMARK   78  A    between atoms: _209  and  _210
REMARK   79  A    between atoms: _209  and  _212
REMARK   80  A    between atoms: _212  and  _213
REMARK   81  A    between atoms: _218  and  _219
REMARK   82  A    between atoms: _221  and  _223
REMARK   83  A    between atoms: _223  and  _224
REMARK   84  A    between atoms: _223  and  _226
REMARK   85  A    between atoms: _226  and  _227
REMARK   86  A    between atoms: _227  and  _228
REMARK   87  A    between atoms: _230  and  _232
REMARK   88  A    between atoms: _232  and  _233
REMARK   89  A    between atoms: _232  and  _235
REMARK   90  A    between atoms: _235  and  _236
REMARK   91  A    between atoms: _246  and  _248
REMARK   92  A    between atoms: _248  and  _249
REMARK   93  A    between atoms: _248  and  _251
REMARK   94  A    between atoms: _251  and  _252
REMARK   95  A    between atoms: _255  and  _257
REMARK   96  A    between atoms: _257  and  _258
REMARK   97  A    between atoms: _257  and  _260
REMARK   98  A    between atoms: _260  and  _261
REMARK   99  A    between atoms: _261  and  _262
REMARK  100  A    between atoms: _265  and  _267
REMARK  101  A    between atoms: _267  and  _268
REMARK  102  A    between atoms: _267  and  _270
REMARK  103  A    between atoms: _270  and  _271
REMARK  104  A    between atoms: _276  and  _278
REMARK  105  A    between atoms: _278  and  _279
REMARK  106  A    between atoms: _281  and  _283
REMARK  107  A    between atoms: _283  and  _284
REMARK  108  A    between atoms: _287  and  _289
REMARK  109  A    between atoms: _289  and  _290
REMARK  110  A    between atoms: _293  and  _295
REMARK  111  A    between atoms: _295  and  _296
REMARK  112  A    between atoms: _295  and  _298
REMARK  113  A    between atoms: _298  and  _299
REMARK  114  A    between atoms: _309  and  _311
REMARK  115  A    between atoms: _311  and  _312
REMARK  116  A    between atoms: _311  and  _314
REMARK  117  A    between atoms: _314  and  _315
REMARK  118  A    between atoms: _317  and  _319
REMARK  119  A    between atoms: _319  and  _320
REMARK  120  A    between atoms: _319  and  _322
REMARK  121  A    between atoms: _322  and  _323
REMARK  122  A    between atoms: _328  and  _330
REMARK  123  A    between atoms: _330  and  _331
REMARK  124  A    between atoms: _330  and  _333
REMARK  125  A    between atoms: _333  and  _334
REMARK  126  A    between atoms: _340  and  _342
REMARK  127  A    between atoms: _342  and  _343
REMARK  128  A    between atoms: _342  and  _345
REMARK  129  A    between atoms: _345  and  _346
REMARK  130  A    between atoms: _346  and  _347
REMARK  131  A    between atoms: _350  and  _352
REMARK  132  A    between atoms: _352  and  _353
REMARK  133  A    between atoms: _352  and  _355
REMARK  134  A    between atoms: _355  and  _356
REMARK  135  A    between atoms: _366  and  _368
REMARK  136  A    between atoms: _368  and  _369
REMARK  137  A    between atoms: _368  and  _371
REMARK  138  A    between atoms: _371  and  _372
REMARK  139  A    between atoms: _372  and  _373
REMARK  140  A    between atoms: _376  and  _378
REMARK  141  A    between atoms: _378  and  _379
REMARK  142  A    between atoms: _378  and  _381
REMARK  143  A    between atoms: _381  and  _382
REMARK  144  A    between atoms: _382  and  _383
REMARK  145  A    between atoms: _383  and  _384
REMARK  146  A    between atoms: _384  and  _385
REMARK  147  A    between atoms: _389  and  _391
REMARK  148  A    between atoms: _391  and  _392
REMARK  149  A    between atoms: _391  and  _394
REMARK  150  A    between atoms: _394  and  _395
REMARK                            x       y       z     vdW  Elec       q    Type
REMARK                         _______ _______ _______ _____ _____    ______ ____
ROOT
ATOM      1  CA  TYR A   2      -5.768  11.846  17.105  0.00  0.00    +0.153 C 
ENDROOT
BRANCH   1   4
ATOM      2  C   ASN A   1      -3.768  13.209  17.074  0.00  0.00    +0.239 C 
ATOM      3  O   ASN A   1      -3.324  12.607  18.050  0.00  0.00    -0.274 OA
ATOM      4  N   TYR A   2      -4.962  12.948  16.559  0.00  0.00    -0.297 N 
ATOM      5  H   TYR A   2      -5.327  13.521  15.772  0.00  0.00    +0.150 HD
BRANCH   2   6
ATOM      6  CA  ASN A   1      -2.968  14.329  16.429  0.00  0.00    +0.154 C 
BRANCH   6   7
ATOM      7  N   ASN A   1      -2.246  15.016  17.484  0.00  0.00    -0.238 NA
ATOM      8  H   ASN A   1      -1.329  14.635  17.793  0.00  0.00    +0.142 HD
ENDBRANCH   6   7
BRANCH   6   9
ATOM      9  CB  ASN A   1      -1.988  13.751  15.400  0.00  0.00    +0.111 C 
BRANCH   9  10
ATOM     10  CG  ASN A   1      -1.246  14.828  14.619  0.00  0.00    +0.221 C 
ATOM     11  OD1 ASN A   1      -1.515  16.034  14.746  0.00  0.00    -0.275 OA
ATOM     12  ND2 ASN A   1      -0.312  14.388  13.772  0.00  0.00    -0.329 N 
ATOM     13 HD21 ASN A   1      -0.117  13.369  13.696  0.00  0.00    +0.145 HD
ATOM     14 HD22 ASN A   1       0.221  15.064  13.188  0.00  0.00    +0.145 HD
ENDBRANCH   9  10
ENDBRANCH   6   9
ENDBRANCH   2   6
ENDBRANCH   1   4
BRANCH   1  15
ATOM     15  C   TYR A   2      -6.656  11.198  16.021  0.00  0.00    +0.241 C 
ATOM     16  N   TYR A   3      -6.737   9.872  16.027  0.00  0.00    -0.298 N 
ATOM     17  H   TYR A   3      -6.255   9.332  16.774  0.00  0.00    +0.150 HD
ATOM     18  O   TYR A   2      -7.265  11.903  15.200  0.00  0.00    -0.273 OA
BRANCH  16  19
ATOM     19  CA  TYR A   3      -7.498   9.156  14.992  0.00  0.00    +0.141 C 
BRANCH  19  20
ATOM     20  C   TYR A   3      -8.360   8.034  15.561  0.00  0.00    +0.227 C 
ATOM     21  O   TYR A   3      -9.481   7.844  15.122  0.00  0.00    -0.286 OA
ENDBRANCH  19  20
BRANCH  19  22
ATOM     22  CB  TYR A   3      -6.567   8.573  13.893  0.00  0.00    +0.054 C 
BRANCH  22  23
ATOM     23  CG  TYR A   3      -5.935   9.651  13.005  0.00  0.00    -0.020 A 
ATOM     24  CD2 TYR A   3      -4.708  10.242  13.337  0.00  0.00    -0.001 A 
ATOM     25  CE2 TYR A   3      -4.146  11.234  12.527  0.00  0.00    +0.036 A 
ATOM     26  CZ  TYR A   3      -4.836  11.649  11.406  0.00  0.00    +0.134 A 
ATOM     27  CE1 TYR A   3      -6.050  11.069  11.065  0.00  0.00    +0.036 A 
ATOM     28  CD1 TYR A   3      -6.583  10.084  11.865  0.00  0.00    -0.001 A 
BRANCH  26  29
ATOM     29  OH  TYR A   3      -4.328  12.615  10.581  0.00  0.00    -0.506 OA
ATOM     30  HH  TYR A   3      -3.465  12.937  10.944  0.00  0.00    +0.292 HD
ENDBRANCH  26  29
ENDBRANCH  22  23
ENDBRANCH  19  22
ENDBRANCH  16  19
ENDBRANCH   1  15
BRANCH   1  31
ATOM     31  CB  TYR A   2      -6.655  12.316  18.306  0.00  0.00    +0.055 C 
BRANCH  31  32
ATOM     32  CG  TYR A   2      -7.505  11.162  18.787  0.00  0.00    -0.020 A 
ATOM     33  CD2 TYR A   2      -6.952  10.147  19.564  0.00  0.00    -0.001 A 
ATOM     34  CE2 TYR A   2      -7.690   9.048  19.950  0.00  0.00    +0.036 A 
ATOM     35  CZ  TYR A   2      -8.993   8.938  19.557  0.00  0.00    +0.134 A 
ATOM     36  CE1 TYR A   2      -9.571   9.909  18.765  0.00  0.00    +0.036 A 
ATOM     37  CD1 TYR A   2      -8.812  11.020  18.365  0.00  0.00    -0.001 A 
BRANCH  35  38
ATOM     38  OH  TYR A   2      -9.731   7.854  19.935  0.00  0.00    -0.506 OA
ATOM     39  HH  TYR A   2     -10.518   8.157  20.454  0.00  0.00    +0.292 HD
ENDBRANCH  35  38
ENDBRANCH  31  32
ENDBRANCH   1  31
TORSDOF 14
REMARK  Name = ../refined-set-2016/1oif/1oif_pocket.pdb
REMARK  150 active torsions:
REMARK  status: ('A' for Active; 'I' for Inactive)
REMARK    1  A    between atoms: _1  and  _3
REMARK    2  A    between atoms: _3  and  _4
REMARK    3  A    between atoms: _7  and  _9
REMARK    4  A    between atoms: _9  and  _10
REMARK    5  A    between atoms: _9  and  _12
REMARK    6  A    between atoms: _12  and  _13
REMARK    7  A    between atoms: _16  and  _18
REMARK    8  A    between atoms: _18  and  _19
REMARK    9  A    between atoms: _22  and  _24
REMARK   10  A    between atoms: _24  and  _25
REMARK   11  A    between atoms: _24  and  _27
REMARK   12  A    between atoms: _27  and  _28
REMARK   13  A    between atoms: _30  and  _32
REMARK   14  A    between atoms: _32  and  _33
REMARK   15  A    between atoms: _32  and  _35
REMARK   16  A    between atoms: _35  and  _36
REMARK   17  A    between atoms: _41  and  _42
REMARK   18  A    between atoms: _44  and  _46
REMARK   19  A    between atoms: _46  and  _47
REMARK   20  A    between atoms: _46  and  _49
REMARK   21  A    between atoms: _49  and  _50
REMARK   22  A    between atoms: _50  and  _51
REMARK   23  A    between atoms: _56  and  _58
REMARK   24  A    between atoms: _58  and  _59
REMARK   25  A    between atoms: _58  and  _61
REMARK   26  A    between atoms: _61  and  _62
REMARK   27  A    between atoms: _62  and  _63
REMARK   28  A    between atoms: _63  and  _64
REMARK   29  A    between atoms: _73  and  _75
REMARK   30  A    between atoms: _75  and  _76
REMARK   31  A    between atoms: _75  and  _78
REMARK   32  A    between atoms: _78  and  _79
REMARK   33  A    between atoms: _84  and  _86
REMARK   34  A    between atoms: _86  and  _87
REMARK   35  A    between atoms: _86  and  _89
REMARK   36  A    between atoms: _89  and  _90
REMARK   37  A    between atoms: _100  and  _102
REMARK   38  A    between atoms: _102  and  _103
REMARK   39  A    between atoms: _102  and  _105
REMARK   40  A    between atoms: _105  and  _106
REMARK   41  A    between atoms: _111  and  _113
REMARK   42  A    between atoms: _113  and  _114
REMARK   43  A    between atoms: _113  and  _116
REMARK   44  A    between atoms: _116  and  _117
REMARK   45  A    between atoms: _117  and  _118
REMARK   46  A    between atoms: _121  and  _123
REMARK   47  A    between atoms: _123  and  _124
REMARK   48  A    between atoms: _123  and  _126
REMARK   49  A    between atoms: _129  and  _131
REMARK   50  A    between atoms: _131  and  _132
REMARK   51  A    between atoms: _131  and  _134
REMARK   52  A    between atoms: _134  and  _135
REMARK   53  A    between atoms: _140  and  _142
REMARK   54  A    between atoms: _142  and  _143
REMARK   55  A    between atoms: _142  and  _145
REMARK   56  A    between atoms: _148  and  _150
REMARK   57  A    between atoms: _150  and  _151
REMARK   58  A    between atoms: _150  and  _153
REMARK   59  A    between atoms: _153  and  _154
REMARK   60  A    between atoms: _160  and  _162
REMARK   61  A    between atoms: _162  and  _163
REMARK   62  A    between atoms: _162  and  _165
REMARK   63  A    between atoms: _165  and  _166
REMARK   64  A    between atoms: _171  and  _173
REMARK   65  A    between atoms: _173  and  _174
REMARK   66  A    between atoms: _173  and  _176
REMARK   67  A    between atoms: _176  and  _177
REMARK   68  A    between atoms: _182  and  _184
REMARK   69  A    between atoms: _184  and  _185
REMARK   70  A    between atoms: _184  and  _187
REMARK   71  A    between atoms: _187  and  _188
REMARK   72  A    between atoms: _193  and  _195
REMARK   73  A    between atoms: _195  and  _196
REMARK   74  A    between atoms: _195  and  _198
REMARK   75  A    between atoms: _198  and  _199
REMARK   76  A    between atoms: _204  and  _205
REMARK   77  A    between atoms: _207  and  _209
REMARK   78  A    between atoms: _209  and  _210
REMARK   79  A    between atoms: _209  and  _212
REMARK   80  A    between atoms: _212  and  _213
REMARK   81  A    between atoms: _218  and  _219
REMARK   82  A    between atoms: _221  and  _223
REMARK   83  A    between atoms: _223  and  _224
REMARK   84  A    between atoms: _223  and  _226
REMARK   85  A    between atoms: _226  and  _227
REMARK   86  A    between atoms: _227  and  _228
REMARK   87  A    between atoms: _230  and  _232
REMARK   88  A    between atoms: _232  and  _233
REMARK   89  A    between atoms: _232  and  _235
REMARK   90  A    between atoms: _235  and  _236
REMARK   91  A    between atoms: _246  and  _248
REMARK   92  A    between atoms: _248  and  _249
REMARK   93  A    between atoms: _248  and  _251
REMARK   94  A    between atoms: _251  and  _252
REMARK   95  A    between atoms: _255  and  _257
REMARK   96  A    between atoms: _257  and  _258
REMARK   97  A    between atoms: _257  and  _260
REMARK   98  A    between atoms: _260  and  _261
REMARK   99  A    between atoms: _261  and  _262
REMARK  100  A    between atoms: _265  and  _267
REMARK  101  A    between atoms: _267  and  _268
REMARK  102  A    between atoms: _267  and  _270
REMARK  103  A    between atoms: _270  and  _271
REMARK  104  A    between atoms: _276  and  _278
REMARK  105  A    between atoms: _278  and  _279
REMARK  106  A    between atoms: _281  and  _283
REMARK  107  A    between atoms: _283  and  _284
REMARK  108  A    between atoms: _287  and  _289
REMARK  109  A    between atoms: _289  and  _290
REMARK  110  A    between atoms: _293  and  _295
REMARK  111  A    between atoms: _295  and  _296
REMARK  112  A    between atoms: _295  and  _298
REMARK  113  A    between atoms: _298  and  _299
REMARK  114  A    between atoms: _309  and  _311
REMARK  115  A    between atoms: _311  and  _312
REMARK  116  A    between atoms: _311  and  _314
REMARK  117  A    between atoms: _314  and  _315
REMARK  118  A    between atoms: _317  and  _319
REMARK  119  A    between atoms: _319  and  _320
REMARK  120  A    between atoms: _319  and  _322
REMARK  121  A    between atoms: _322  and  _323
REMARK  122  A    between atoms: _328  and  _330
REMARK  123  A    between atoms: _330  and  _331
REMARK  124  A    between atoms: _330  and  _333
REMARK  125  A    between atoms: _333  and  _334
REMARK  126  A    between atoms: _340  and  _342
REMARK  127  A    between atoms: _342  and  _343
REMARK  128  A    between atoms: _342  and  _345
REMARK  129  A    between atoms: _345  and  _346
REMARK  130  A    between atoms: _346  and  _347
REMARK  131  A    between atoms: _350  and  _352
REMARK  132  A    between atoms: _352  and  _353
REMARK  133  A    between atoms: _352  and  _355
REMARK  134  A    between atoms: _355  and  _356
REMARK  135  A    between atoms: _366  and  _368
REMARK  136  A    between atoms: _368  and  _369
REMARK  137  A    between atoms: _368  and  _371
REMARK  138  A    between atoms: _371  and  _372
REMARK  139  A    between atoms: _372  and  _373
REMARK  140  A    between atoms: _376  and  _378
REMARK  141  A    between atoms: _378  and  _379
REMARK  142  A    between atoms: _378  and  _381
REMARK  143  A    between atoms: _381  and  _382
REMARK  144  A    between atoms: _382  and  _383
REMARK  145  A    between atoms: _383  and  _384
REMARK  146  A    between atoms: _384  and  _385
REMARK  147  A    between atoms: _389  and  _391
REMARK  148  A    between atoms: _391  and  _392
REMARK  149  A    between atoms: _391  and  _394
REMARK  150  A    between atoms: _394  and  _395
REMARK                            x       y       z     vdW  Elec       q    Type
REMARK                         _______ _______ _______ _____ _____    ______ ____
ROOT
ATOM      1  CA  MET A   1      -7.595   1.823   7.735  0.00  0.00    +0.134 C 
ENDROOT
BRANCH   1   2
ATOM      2  N   MET A   1      -8.894   2.207   7.195  0.00  0.00    -0.239 NA
ATOM      3  H   MET A   1      -9.389   3.043   7.566  0.00  0.00    +0.142 HD
ENDBRANCH   1   2
BRANCH   1   4
ATOM      4  C   MET A   1      -7.721   0.578   8.597  0.00  0.00    +0.224 C 
ATOM      5  O   MET A   1      -6.714  -0.067   8.941  0.00  0.00    -0.287 OA
ENDBRANCH   1   4
BRANCH   1   6
ATOM      6  CB  MET A   1      -6.967   2.935   8.596  0.00  0.00    +0.037 C 
BRANCH   6   7
ATOM      7  CG  MET A   1      -6.603   4.229   7.879  0.00  0.00    +0.059 C 
BRANCH   7   8
ATOM      8  SD  MET A   1      -5.492   4.071   6.485  0.00  0.00    -0.139 S 
ATOM      9  CE  MET A   1      -3.904   3.729   7.265  0.00  0.00    +0.069 C 
ENDBRANCH   7   8
ENDBRANCH   6   7
ENDBRANCH   1   6
TORSDOF 5
REMARK  Name = ../refined-set-2016/1oif/1oif_pocket.pdb
REMARK  150 active torsions:
REMARK  status: ('A' for Active; 'I' for Inactive)
REMARK    1  A    between atoms: _1  and  _3
REMARK    2  A    between atoms: _3  and  _4
REMARK    3  A    between atoms: _7  and  _9
REMARK    4  A    between atoms: _9  and  _10
REMARK    5  A    between atoms: _9  and  _12
REMARK    6  A    between atoms: _12  and  _13
REMARK    7  A    between atoms: _16  and  _18
REMARK    8  A    between atoms: _18  and  _19
REMARK    9  A    between atoms: _22  and  _24
REMARK   10  A    between atoms: _24  and  _25
REMARK   11  A    between atoms: _24  and  _27
REMARK   12  A    between atoms: _27  and  _28
REMARK   13  A    between atoms: _30  and  _32
REMARK   14  A    between atoms: _32  and  _33
REMARK   15  A    between atoms: _32  and  _35
REMARK   16  A    between atoms: _35  and  _36
REMARK   17  A    between atoms: _41  and  _42
REMARK   18  A    between atoms: _44  and  _46
REMARK   19  A    between atoms: _46  and  _47
REMARK   20  A    between atoms: _46  and  _49
REMARK   21  A    between atoms: _49  and  _50
REMARK   22  A    between atoms: _50  and  _51
REMARK   23  A    between atoms: _56  and  _58
REMARK   24  A    between atoms: _58  and  _59
REMARK   25  A    between atoms: _58  and  _61
REMARK   26  A    between atoms: _61  and  _62
REMARK   27  A    between atoms: _62  and  _63
REMARK   28  A    between atoms: _63  and  _64
REMARK   29  A    between atoms: _73  and  _75
REMARK   30  A    between atoms: _75  and  _76
REMARK   31  A    between atoms: _75  and  _78
REMARK   32  A    between atoms: _78  and  _79
REMARK   33  A    between atoms: _84  and  _86
REMARK   34  A    between atoms: _86  and  _87
REMARK   35  A    between atoms: _86  and  _89
REMARK   36  A    between atoms: _89  and  _90
REMARK   37  A    between atoms: _100  and  _102
REMARK   38  A    between atoms: _102  and  _103
REMARK   39  A    between atoms: _102  and  _105
REMARK   40  A    between atoms: _105  and  _106
REMARK   41  A    between atoms: _111  and  _113
REMARK   42  A    between atoms: _113  and  _114
REMARK   43  A    between atoms: _113  and  _116
REMARK   44  A    between atoms: _116  and  _117
REMARK   45  A    between atoms: _117  and  _118
REMARK   46  A    between atoms: _121  and  _123
REMARK   47  A    between atoms: _123  and  _124
REMARK   48  A    between atoms: _123  and  _126
REMARK   49  A    between atoms: _129  and  _131
REMARK   50  A    between atoms: _131  and  _132
REMARK   51  A    between atoms: _131  and  _134
REMARK   52  A    between atoms: _134  and  _135
REMARK   53  A    between atoms: _140  and  _142
REMARK   54  A    between atoms: _142  and  _143
REMARK   55  A    between atoms: _142  and  _145
REMARK   56  A    between atoms: _148  and  _150
REMARK   57  A    between atoms: _150  and  _151
REMARK   58  A    between atoms: _150  and  _153
REMARK   59  A    between atoms: _153  and  _154
REMARK   60  A    between atoms: _160  and  _162
REMARK   61  A    between atoms: _162  and  _163
REMARK   62  A    between atoms: _162  and  _165
REMARK   63  A    between atoms: _165  and  _166
REMARK   64  A    between atoms: _171  and  _173
REMARK   65  A    between atoms: _173  and  _174
REMARK   66  A    between atoms: _173  and  _176
REMARK   67  A    between atoms: _176  and  _177
REMARK   68  A    between atoms: _182  and  _184
REMARK   69  A    between atoms: _184  and  _185
REMARK   70  A    between atoms: _184  and  _187
REMARK   71  A    between atoms: _187  and  _188
REMARK   72  A    between atoms: _193  and  _195
REMARK   73  A    between atoms: _195  and  _196
REMARK   74  A    between atoms: _195  and  _198
REMARK   75  A    between atoms: _198  and  _199
REMARK   76  A    between atoms: _204  and  _205
REMARK   77  A    between atoms: _207  and  _209
REMARK   78  A    between atoms: _209  and  _210
REMARK   79  A    between atoms: _209  and  _212
REMARK   80  A    between atoms: _212  and  _213
REMARK   81  A    between atoms: _218  and  _219
REMARK   82  A    between atoms: _221  and  _223
REMARK   83  A    between atoms: _223  and  _224
REMARK   84  A    between atoms: _223  and  _226
REMARK   85  A    between atoms: _226  and  _227
REMARK   86  A    between atoms: _227  and  _228
REMARK   87  A    between atoms: _230  and  _232
REMARK   88  A    between atoms: _232  and  _233
REMARK   89  A    between atoms: _232  and  _235
REMARK   90  A    between atoms: _235  and  _236
REMARK   91  A    between atoms: _246  and  _248
REMARK   92  A    between atoms: _248  and  _249
REMARK   93  A    between atoms: _248  and  _251
REMARK   94  A    between atoms: _251  and  _252
REMARK   95  A    between atoms: _255  and  _257
REMARK   96  A    between atoms: _257  and  _258
REMARK   97  A    between atoms: _257  and  _260
REMARK   98  A    between atoms: _260  and  _261
REMARK   99  A    between atoms: _261  and  _262
REMARK  100  A    between atoms: _265  and  _267
REMARK  101  A    between atoms: _267  and  _268
REMARK  102  A    between atoms: _267  and  _270
REMARK  103  A    between atoms: _270  and  _271
REMARK  104  A    between atoms: _276  and  _278
REMARK  105  A    between atoms: _278  and  _279
REMARK  106  A    between atoms: _281  and  _283
REMARK  107  A    between atoms: _283  and  _284
REMARK  108  A    between atoms: _287  and  _289
REMARK  109  A    between atoms: _289  and  _290
REMARK  110  A    between atoms: _293  and  _295
REMARK  111  A    between atoms: _295  and  _296
REMARK  112  A    between atoms: _295  and  _298
REMARK  113  A    between atoms: _298  and  _299
REMARK  114  A    between atoms: _309  and  _311
REMARK  115  A    between atoms: _311  and  _312
REMARK  116  A    between atoms: _311  and  _314
REMARK  117  A    between atoms: _314  and  _315
REMARK  118  A    between atoms: _317  and  _319
REMARK  119  A    between atoms: _319  and  _320
REMARK  120  A    between atoms: _319  and  _322
REMARK  121  A    between atoms: _322  and  _323
REMARK  122  A    between atoms: _328  and  _330
REMARK  123  A    between atoms: _330  and  _331
REMARK  124  A    between atoms: _330  and  _333
REMARK  125  A    between atoms: _333  and  _334
REMARK  126  A    between atoms: _340  and  _342
REMARK  127  A    between atoms: _342  and  _343
REMARK  128  A    between atoms: _342  and  _345
REMARK  129  A    between atoms: _345  and  _346
REMARK  130  A    between atoms: _346  and  _347
REMARK  131  A    between atoms: _350  and  _352
REMARK  132  A    between atoms: _352  and  _353
REMARK  133  A    between atoms: _352  and  _355
REMARK  134  A    between atoms: _355  and  _356
REMARK  135  A    between atoms: _366  and  _368
REMARK  136  A    between atoms: _368  and  _369
REMARK  137  A    between atoms: _368  and  _371
REMARK  138  A    between atoms: _371  and  _372
REMARK  139  A    between atoms: _372  and  _373
REMARK  140  A    between atoms: _376  and  _378
REMARK  141  A    between atoms: _378  and  _379
REMARK  142  A    between atoms: _378  and  _381
REMARK  143  A    between atoms: _381  and  _382
REMARK  144  A    between atoms: _382  and  _383
REMARK  145  A    between atoms: _383  and  _384
REMARK  146  A    between atoms: _384  and  _385
REMARK  147  A    between atoms: _389  and  _391
REMARK  148  A    between atoms: _391  and  _392
REMARK  149  A    between atoms: _391  and  _394
REMARK  150  A    between atoms: _394  and  _395
REMARK                            x       y       z     vdW  Elec       q    Type
REMARK                         _______ _______ _______ _____ _____    ______ ____
ROOT
ATOM      1  CG  TRP A   1      -6.943   3.241  12.087  0.00  0.00    -0.002 A 
ATOM      2  CD1 TRP A   1      -6.084   2.172  11.976  0.00  0.00    +0.068 A 
ATOM      3  NE1 TRP A   1      -4.888   2.577  11.437  0.00  0.00    -0.352 N 
ATOM      4  HE1 TRP A   1      -4.080   1.957  11.229  0.00  0.00    +0.166 HD
ATOM      5  CE2 TRP A   1      -4.929   3.931  11.216  0.00  0.00    +0.056 A 
ATOM      6  CZ2 TRP A   1      -3.935   4.801  10.684  0.00  0.00    +0.017 A 
ATOM      7  CH2 TRP A   1      -4.266   6.129  10.543  0.00  0.00    +0.001 A 
ATOM      8  CZ3 TRP A   1      -5.553   6.613  10.942  0.00  0.00    +0.000 A 
ATOM      9  CE3 TRP A   1      -6.529   5.746  11.464  0.00  0.00    +0.001 A 
ATOM     10  CD2 TRP A   1      -6.217   4.385  11.618  0.00  0.00    +0.013 A 
ENDROOT
BRANCH   1  11
ATOM     11  CB  TRP A   1      -8.358   3.222  12.604  0.00  0.00    +0.053 C 
BRANCH  11  12
ATOM     12  CA  TRP A   1      -8.995   1.838  12.790  0.00  0.00    +0.137 C 
BRANCH  12  13
ATOM     13  N   TRP A   1      -9.159   1.168  11.494  0.00  0.00    -0.239 NA
ATOM     14  H   TRP A   1      -9.301   1.745  10.640  0.00  0.00    +0.142 HD
ENDBRANCH  12  13
BRANCH  12  15
ATOM     15  C   TRP A   1     -10.351   1.995  13.507  0.00  0.00    +0.224 C 
ATOM     16  O   TRP A   1     -11.306   2.454  12.909  0.00  0.00    -0.287 OA
ENDBRANCH  12  15
ENDBRANCH  11  12
ENDBRANCH   1  11
TORSDOF 4
REMARK  Name = ../refined-set-2016/1oif/1oif_pocket.pdb
REMARK  150 active torsions:
REMARK  status: ('A' for Active; 'I' for Inactive)
REMARK    1  A    between atoms: _1  and  _3
REMARK    2  A    between atoms: _3  and  _4
REMARK    3  A    between atoms: _7  and  _9
REMARK    4  A    between atoms: _9  and  _10
REMARK    5  A    between atoms: _9  and  _12
REMARK    6  A    between atoms: _12  and  _13
REMARK    7  A    between atoms: _16  and  _18
REMARK    8  A    between atoms: _18  and  _19
REMARK    9  A    between atoms: _22  and  _24
REMARK   10  A    between atoms: _24  and  _25
REMARK   11  A    between atoms: _24  and  _27
REMARK   12  A    between atoms: _27  and  _28
REMARK   13  A    between atoms: _30  and  _32
REMARK   14  A    between atoms: _32  and  _33
REMARK   15  A    between atoms: _32  and  _35
REMARK   16  A    between atoms: _35  and  _36
REMARK   17  A    between atoms: _41  and  _42
REMARK   18  A    between atoms: _44  and  _46
REMARK   19  A    between atoms: _46  and  _47
REMARK   20  A    between atoms: _46  and  _49
REMARK   21  A    between atoms: _49  and  _50
REMARK   22  A    between atoms: _50  and  _51
REMARK   23  A    between atoms: _56  and  _58
REMARK   24  A    between atoms: _58  and  _59
REMARK   25  A    between atoms: _58  and  _61
REMARK   26  A    between atoms: _61  and  _62
REMARK   27  A    between atoms: _62  and  _63
REMARK   28  A    between atoms: _63  and  _64
REMARK   29  A    between atoms: _73  and  _75
REMARK   30  A    between atoms: _75  and  _76
REMARK   31  A    between atoms: _75  and  _78
REMARK   32  A    between atoms: _78  and  _79
REMARK   33  A    between atoms: _84  and  _86
REMARK   34  A    between atoms: _86  and  _87
REMARK   35  A    between atoms: _86  and  _89
REMARK   36  A    between atoms: _89  and  _90
REMARK   37  A    between atoms: _100  and  _102
REMARK   38  A    between atoms: _102  and  _103
REMARK   39  A    between atoms: _102  and  _105
REMARK   40  A    between atoms: _105  and  _106
REMARK   41  A    between atoms: _111  and  _113
REMARK   42  A    between atoms: _113  and  _114
REMARK   43  A    between atoms: _113  and  _116
REMARK   44  A    between atoms: _116  and  _117
REMARK   45  A    between atoms: _117  and  _118
REMARK   46  A    between atoms: _121  and  _123
REMARK   47  A    between atoms: _123  and  _124
REMARK   48  A    between atoms: _123  and  _126
REMARK   49  A    between atoms: _129  and  _131
REMARK   50  A    between atoms: _131  and  _132
REMARK   51  A    between atoms: _131  and  _134
REMARK   52  A    between atoms: _134  and  _135
REMARK   53  A    between atoms: _140  and  _142
REMARK   54  A    between atoms: _142  and  _143
REMARK   55  A    between atoms: _142  and  _145
REMARK   56  A    between atoms: _148  and  _150
REMARK   57  A    between atoms: _150  and  _151
REMARK   58  A    between atoms: _150  and  _153
REMARK   59  A    between atoms: _153  and  _154
REMARK   60  A    between atoms: _160  and  _162
REMARK   61  A    between atoms: _162  and  _163
REMARK   62  A    between atoms: _162  and  _165
REMARK   63  A    between atoms: _165  and  _166
REMARK   64  A    between atoms: _171  and  _173
REMARK   65  A    between atoms: _173  and  _174
REMARK   66  A    between atoms: _173  and  _176
REMARK   67  A    between atoms: _176  and  _177
REMARK   68  A    between atoms: _182  and  _184
REMARK   69  A    between atoms: _184  and  _185
REMARK   70  A    between atoms: _184  and  _187
REMARK   71  A    between atoms: _187  and  _188
REMARK   72  A    between atoms: _193  and  _195
REMARK   73  A    between atoms: _195  and  _196
REMARK   74  A    between atoms: _195  and  _198
REMARK   75  A    between atoms: _198  and  _199
REMARK   76  A    between atoms: _204  and  _205
REMARK   77  A    between atoms: _207  and  _209
REMARK   78  A    between atoms: _209  and  _210
REMARK   79  A    between atoms: _209  and  _212
REMARK   80  A    between atoms: _212  and  _213
REMARK   81  A    between atoms: _218  and  _219
REMARK   82  A    between atoms: _221  and  _223
REMARK   83  A    between atoms: _223  and  _224
REMARK   84  A    between atoms: _223  and  _226
REMARK   85  A    between atoms: _226  and  _227
REMARK   86  A    between atoms: _227  and  _228
REMARK   87  A    between atoms: _230  and  _232
REMARK   88  A    between atoms: _232  and  _233
REMARK   89  A    between atoms: _232  and  _235
REMARK   90  A    between atoms: _235  and  _236
REMARK   91  A    between atoms: _246  and  _248
REMARK   92  A    between atoms: _248  and  _249
REMARK   93  A    between atoms: _248  and  _251
REMARK   94  A    between atoms: _251  and  _252
REMARK   95  A    between atoms: _255  and  _257
REMARK   96  A    between atoms: _257  and  _258
REMARK   97  A    between atoms: _257  and  _260
REMARK   98  A    between atoms: _260  and  _261
REMARK   99  A    between atoms: _261  and  _262
REMARK  100  A    between atoms: _265  and  _267
REMARK  101  A    between atoms: _267  and  _268
REMARK  102  A    between atoms: _267  and  _270
REMARK  103  A    between atoms: _270  and  _271
REMARK  104  A    between atoms: _276  and  _278
REMARK  105  A    between atoms: _278  and  _279
REMARK  106  A    between atoms: _281  and  _283
REMARK  107  A    between atoms: _283  and  _284
REMARK  108  A    between atoms: _287  and  _289
REMARK  109  A    between atoms: _289  and  _290
REMARK  110  A    between atoms: _293  and  _295
REMARK  111  A    between atoms: _295  and  _296
REMARK  112  A    between atoms: _295  and  _298
REMARK  113  A    between atoms: _298  and  _299
REMARK  114  A    between atoms: _309  and  _311
REMARK  115  A    between atoms: _311  and  _312
REMARK  116  A    between atoms: _311  and  _314
REMARK  117  A    between atoms: _314  and  _315
REMARK  118  A    between atoms: _317  and  _319
REMARK  119  A    between atoms: _319  and  _320
REMARK  120  A    between atoms: _319  and  _322
REMARK  121  A    between atoms: _322  and  _323
REMARK  122  A    between atoms: _328  and  _330
REMARK  123  A    between atoms: _330  and  _331
REMARK  124  A    between atoms: _330  and  _333
REMARK  125  A    between atoms: _333  and  _334
REMARK  126  A    between atoms: _340  and  _342
REMARK  127  A    between atoms: _342  and  _343
REMARK  128  A    between atoms: _342  and  _345
REMARK  129  A    between atoms: _345  and  _346
REMARK  130  A    between atoms: _346  and  _347
REMARK  131  A    between atoms: _350  and  _352
REMARK  132  A    between atoms: _352  and  _353
REMARK  133  A    between atoms: _352  and  _355
REMARK  134  A    between atoms: _355  and  _356
REMARK  135  A    between atoms: _366  and  _368
REMARK  136  A    between atoms: _368  and  _369
REMARK  137  A    between atoms: _368  and  _371
REMARK  138  A    between atoms: _371  and  _372
REMARK  139  A    between atoms: _372  and  _373
REMARK  140  A    between atoms: _376  and  _378
REMARK  141  A    between atoms: _378  and  _379
REMARK  142  A    between atoms: _378  and  _381
REMARK  143  A    between atoms: _381  and  _382
REMARK  144  A    between atoms: _382  and  _383
REMARK  145  A    between atoms: _383  and  _384
REMARK  146  A    between atoms: _384  and  _385
REMARK  147  A    between atoms: _389  and  _391
REMARK  148  A    between atoms: _391  and  _392
REMARK  149  A    between atoms: _391  and  _394
REMARK  150  A    between atoms: _394  and  _395
REMARK                            x       y       z     vdW  Elec       q    Type
REMARK                         _______ _______ _______ _____ _____    ______ ____
ROOT
ATOM      1  CA  ASN A   3      -8.066  14.530  13.071  0.00  0.00    +0.158 C 
ENDROOT
BRANCH   1   2
ATOM      2  C   ASN A   3      -8.796  14.261  11.772  0.00  0.00    +0.241 C 
ATOM      3  N   GLY A   4      -9.212  13.016  11.559  0.00  0.00    -0.295 N 
ATOM      4  H   GLY A   4      -9.118  12.291  12.299  0.00  0.00    +0.150 HD
ATOM      5  O   ASN A   3      -8.961  15.167  10.950  0.00  0.00    -0.273 OA
BRANCH   3   6
ATOM      6  CA  GLY A   4      -9.799  12.691  10.276  0.00  0.00    +0.176 C 
BRANCH   6   7
ATOM      7  C   GLY A   4      -9.963  11.216  10.055  0.00  0.00    +0.243 C 
ATOM      8  O   GLY A   4      -9.703  10.439  10.935  0.00  0.00    -0.273 OA
ATOM      9  N   ALA A   5     -10.388  10.849   8.855  0.00  0.00    -0.297 N 
ATOM     10  H   ALA A   5     -10.434  11.557   8.094  0.00  0.00    +0.150 HD
BRANCH   9  11
ATOM     11  CA  ALA A   5     -10.792   9.477   8.576  0.00  0.00    +0.149 C 
ATOM     12  CB  ALA A   5     -12.288   9.237   9.006  0.00  0.00    +0.031 C 
BRANCH  11  13
ATOM     13  C   ALA A   5     -10.602   9.113   7.115  0.00  0.00    +0.241 C 
ATOM     14  N   ALA A   6     -10.190   7.870   6.893  0.00  0.00    -0.298 N 
ATOM     15  H   ALA A   6      -9.882   7.285   7.696  0.00  0.00    +0.150 HD
ATOM     16  O   ALA A   5     -10.840   9.935   6.213  0.00  0.00    -0.273 OA
BRANCH  14  17
ATOM     17  CA  ALA A   6     -10.160   7.308   5.551  0.00  0.00    +0.137 C 
ATOM     18  CB  ALA A   6      -8.881   6.512   5.341  0.00  0.00    +0.030 C 
BRANCH  17  19
ATOM     19  C   ALA A   6     -11.389   6.419   5.321  0.00  0.00    +0.227 C 
ATOM     20  O   ALA A   6     -11.651   5.506   6.105  0.00  0.00    -0.286 OA
ENDBRANCH  17  19
ENDBRANCH  14  17
ENDBRANCH  11  13
ENDBRANCH   9  11
ENDBRANCH   6   7
ENDBRANCH   3   6
ENDBRANCH   1   2
BRANCH   1  23
ATOM     21  C   GLU A   2      -5.867  15.613  13.453  0.00  0.00    +0.241 C 
ATOM     22  O   GLU A   2      -5.718  15.116  14.556  0.00  0.00    -0.273 OA
ATOM     23  N   ASN A   3      -6.960  15.439  12.716  0.00  0.00    -0.297 N 
ATOM     24  H   ASN A   3      -7.040  15.979  11.831  0.00  0.00    +0.150 HD
BRANCH  21  25
ATOM     25  CA  GLU A   2      -4.750  16.434  12.830  0.00  0.00    +0.149 C 
BRANCH  25  27
ATOM     26  C   THR A   1      -3.509  18.488  13.442  0.00  0.00    +0.241 C 
ATOM     27  N   GLU A   2      -4.197  17.399  13.795  0.00  0.00    -0.297 N 
ATOM     28  H   GLU A   2      -4.351  17.223  14.808  0.00  0.00    +0.150 HD
ATOM     29  O   THR A   1      -3.195  18.748  12.269  0.00  0.00    -0.274 OA
BRANCH  26  30
ATOM     30  CA  THR A   1      -3.135  19.486  14.575  0.00  0.00    +0.172 C 
BRANCH  30  31
ATOM     31  CB  THR A   1      -1.615  19.487  14.812  0.00  0.00    +0.135 C 
ATOM     32  CG2 THR A   1      -1.170  20.838  15.472  0.00  0.00    +0.034 C 
BRANCH  31  33
ATOM     33  OG1 THR A   1      -1.294  18.480  15.786  0.00  0.00    -0.383 OA
ATOM     34  HG1 THR A   1      -1.580  17.594  15.449  0.00  0.00    +0.210 HD
ENDBRANCH  31  33
ENDBRANCH  30  31
BRANCH  30  35
ATOM     35  N   THR A   1      -3.841  19.212  15.838  0.00  0.00    -0.236 NA
ATOM     36  H   THR A   1      -3.370  18.622  16.554  0.00  0.00    +0.142 HD
ENDBRANCH  30  35
ENDBRANCH  26  30
ENDBRANCH  25  27
BRANCH  25  37
ATOM     37  CB  GLU A   2      -3.664  15.419  12.370  0.00  0.00    +0.041 C 
BRANCH  37  38
ATOM     38  CG  GLU A   2      -2.655  15.934  11.363  0.00  0.00    +0.116 C 
BRANCH  38  39
ATOM     39  CD  GLU A   2      -1.610  14.875  11.010  0.00  0.00    +0.365 C 
ATOM     40  OE2 GLU A   2      -1.977  13.659  10.991  0.00  0.00    -0.246 OA
ATOM     41  OE1 GLU A   2      -0.428  15.276  10.782  0.00  0.00    -0.246 OA
ENDBRANCH  38  39
ENDBRANCH  37  38
ENDBRANCH  25  37
ENDBRANCH  21  25
ENDBRANCH   1  23
BRANCH   1  42
ATOM     42  CB  ASN A   3      -9.023  15.160  14.125  0.00  0.00    +0.114 C 
BRANCH  42  43
ATOM     43  CG  ASN A   3     -10.222  14.271  14.482  0.00  0.00    +0.222 C 
ATOM     44  ND2 ASN A   3      -9.982  13.115  15.127  0.00  0.00    -0.329 N 
ATOM     45 HD21 ASN A   3     -10.775  12.510  15.422  0.00  0.00    +0.145 HD
ATOM     46 HD22 ASN A   3      -9.004  12.827  15.331  0.00  0.00    +0.145 HD
ATOM     47  OD1 ASN A   3     -11.359  14.655  14.218  0.00  0.00    -0.275 OA
ENDBRANCH  42  43
ENDBRANCH   1  42
TORSDOF 19
REMARK  Name = ../refined-set-2016/1oif/1oif_pocket.pdb
REMARK  150 active torsions:
REMARK  status: ('A' for Active; 'I' for Inactive)
REMARK    1  A    between atoms: _1  and  _3
REMARK    2  A    between atoms: _3  and  _4
REMARK    3  A    between atoms: _7  and  _9
REMARK    4  A    between atoms: _9  and  _10
REMARK    5  A    between atoms: _9  and  _12
REMARK    6  A    between atoms: _12  and  _13
REMARK    7  A    between atoms: _16  and  _18
REMARK    8  A    between atoms: _18  and  _19
REMARK    9  A    between atoms: _22  and  _24
REMARK   10  A    between atoms: _24  and  _25
REMARK   11  A    between atoms: _24  and  _27
REMARK   12  A    between atoms: _27  and  _28
REMARK   13  A    between atoms: _30  and  _32
REMARK   14  A    between atoms: _32  and  _33
REMARK   15  A    between atoms: _32  and  _35
REMARK   16  A    between atoms: _35  and  _36
REMARK   17  A    between atoms: _41  and  _42
REMARK   18  A    between atoms: _44  and  _46
REMARK   19  A    between atoms: _46  and  _47
REMARK   20  A    between atoms: _46  and  _49
REMARK   21  A    between atoms: _49  and  _50
REMARK   22  A    between atoms: _50  and  _51
REMARK   23  A    between atoms: _56  and  _58
REMARK   24  A    between atoms: _58  and  _59
REMARK   25  A    between atoms: _58  and  _61
REMARK   26  A    between atoms: _61  and  _62
REMARK   27  A    between atoms: _62  and  _63
REMARK   28  A    between atoms: _63  and  _64
REMARK   29  A    between atoms: _73  and  _75
REMARK   30  A    between atoms: _75  and  _76
REMARK   31  A    between atoms: _75  and  _78
REMARK   32  A    between atoms: _78  and  _79
REMARK   33  A    between atoms: _84  and  _86
REMARK   34  A    between atoms: _86  and  _87
REMARK   35  A    between atoms: _86  and  _89
REMARK   36  A    between atoms: _89  and  _90
REMARK   37  A    between atoms: _100  and  _102
REMARK   38  A    between atoms: _102  and  _103
REMARK   39  A    between atoms: _102  and  _105
REMARK   40  A    between atoms: _105  and  _106
REMARK   41  A    between atoms: _111  and  _113
REMARK   42  A    between atoms: _113  and  _114
REMARK   43  A    between atoms: _113  and  _116
REMARK   44  A    between atoms: _116  and  _117
REMARK   45  A    between atoms: _117  and  _118
REMARK   46  A    between atoms: _121  and  _123
REMARK   47  A    between atoms: _123  and  _124
REMARK   48  A    between atoms: _123  and  _126
REMARK   49  A    between atoms: _129  and  _131
REMARK   50  A    between atoms: _131  and  _132
REMARK   51  A    between atoms: _131  and  _134
REMARK   52  A    between atoms: _134  and  _135
REMARK   53  A    between atoms: _140  and  _142
REMARK   54  A    between atoms: _142  and  _143
REMARK   55  A    between atoms: _142  and  _145
REMARK   56  A    between atoms: _148  and  _150
REMARK   57  A    between atoms: _150  and  _151
REMARK   58  A    between atoms: _150  and  _153
REMARK   59  A    between atoms: _153  and  _154
REMARK   60  A    between atoms: _160  and  _162
REMARK   61  A    between atoms: _162  and  _163
REMARK   62  A    between atoms: _162  and  _165
REMARK   63  A    between atoms: _165  and  _166
REMARK   64  A    between atoms: _171  and  _173
REMARK   65  A    between atoms: _173  and  _174
REMARK   66  A    between atoms: _173  and  _176
REMARK   67  A    between atoms: _176  and  _177
REMARK   68  A    between atoms: _182  and  _184
REMARK   69  A    between atoms: _184  and  _185
REMARK   70  A    between atoms: _184  and  _187
REMARK   71  A    between atoms: _187  and  _188
REMARK   72  A    between atoms: _193  and  _195
REMARK   73  A    between atoms: _195  and  _196
REMARK   74  A    between atoms: _195  and  _198
REMARK   75  A    between atoms: _198  and  _199
REMARK   76  A    between atoms: _204  and  _205
REMARK   77  A    between atoms: _207  and  _209
REMARK   78  A    between atoms: _209  and  _210
REMARK   79  A    between atoms: _209  and  _212
REMARK   80  A    between atoms: _212  and  _213
REMARK   81  A    between atoms: _218  and  _219
REMARK   82  A    between atoms: _221  and  _223
REMARK   83  A    between atoms: _223  and  _224
REMARK   84  A    between atoms: _223  and  _226
REMARK   85  A    between atoms: _226  and  _227
REMARK   86  A    between atoms: _227  and  _228
REMARK   87  A    between atoms: _230  and  _232
REMARK   88  A    between atoms: _232  and  _233
REMARK   89  A    between atoms: _232  and  _235
REMARK   90  A    between atoms: _235  and  _236
REMARK   91  A    between atoms: _246  and  _248
REMARK   92  A    between atoms: _248  and  _249
REMARK   93  A    between atoms: _248  and  _251
REMARK   94  A    between atoms: _251  and  _252
REMARK   95  A    between atoms: _255  and  _257
REMARK   96  A    between atoms: _257  and  _258
REMARK   97  A    between atoms: _257  and  _260
REMARK   98  A    between atoms: _260  and  _261
REMARK   99  A    between atoms: _261  and  _262
REMARK  100  A    between atoms: _265  and  _267
REMARK  101  A    between atoms: _267  and  _268
REMARK  102  A    between atoms: _267  and  _270
REMARK  103  A    between atoms: _270  and  _271
REMARK  104  A    between atoms: _276  and  _278
REMARK  105  A    between atoms: _278  and  _279
REMARK  106  A    between atoms: _281  and  _283
REMARK  107  A    between atoms: _283  and  _284
REMARK  108  A    between atoms: _287  and  _289
REMARK  109  A    between atoms: _289  and  _290
REMARK  110  A    between atoms: _293  and  _295
REMARK  111  A    between atoms: _295  and  _296
REMARK  112  A    between atoms: _295  and  _298
REMARK  113  A    between atoms: _298  and  _299
REMARK  114  A    between atoms: _309  and  _311
REMARK  115  A    between atoms: _311  and  _312
REMARK  116  A    between atoms: _311  and  _314
REMARK  117  A    between atoms: _314  and  _315
REMARK  118  A    between atoms: _317  and  _319
REMARK  119  A    between atoms: _319  and  _320
REMARK  120  A    between atoms: _319  and  _322
REMARK  121  A    between atoms: _322  and  _323
REMARK  122  A    between atoms: _328  and  _330
REMARK  123  A    between atoms: _330  and  _331
REMARK  124  A    between atoms: _330  and  _333
REMARK  125  A    between atoms: _333  and  _334
REMARK  126  A    between atoms: _340  and  _342
REMARK  127  A    between atoms: _342  and  _343
REMARK  128  A    between atoms: _342  and  _345
REMARK  129  A    between atoms: _345  and  _346
REMARK  130  A    between atoms: _346  and  _347
REMARK  131  A    between atoms: _350  and  _352
REMARK  132  A    between atoms: _352  and  _353
REMARK  133  A    between atoms: _352  and  _355
REMARK  134  A    between atoms: _355  and  _356
REMARK  135  A    between atoms: _366  and  _368
REMARK  136  A    between atoms: _368  and  _369
REMARK  137  A    between atoms: _368  and  _371
REMARK  138  A    between atoms: _371  and  _372
REMARK  139  A    between atoms: _372  and  _373
REMARK  140  A    between atoms: _376  and  _378
REMARK  141  A    between atoms: _378  and  _379
REMARK  142  A    between atoms: _378  and  _381
REMARK  143  A    between atoms: _381  and  _382
REMARK  144  A    between atoms: _382  and  _383
REMARK  145  A    between atoms: _383  and  _384
REMARK  146  A    between atoms: _384  and  _385
REMARK  147  A    between atoms: _389  and  _391
REMARK  148  A    between atoms: _391  and  _392
REMARK  149  A    between atoms: _391  and  _394
REMARK  150  A    between atoms: _394  and  _395
REMARK                            x       y       z     vdW  Elec       q    Type
REMARK                         _______ _______ _______ _____ _____    ______ ____
ROOT
ATOM      1  CA  TRP A   1      -6.454  15.733   8.074  0.00  0.00    +0.149 C 
ENDROOT
BRANCH   1   2
ATOM      2  C   TRP A   1      -7.414  15.008   7.150  0.00  0.00    +0.239 C 
ATOM      3  O   TRP A   1      -8.118  14.132   7.642  0.00  0.00    -0.274 OA
ATOM      4  N   SER A   2      -7.469  15.334   5.849  0.00  0.00    -0.296 N 
ATOM      5  H   SER A   2      -8.192  14.858   5.273  0.00  0.00    +0.150 HD
BRANCH   4   6
ATOM      6  CA  SER A   2      -6.602  16.301   5.164  0.00  0.00    +0.166 C 
BRANCH   6   7
ATOM      7  C   SER A   2      -7.430  17.219   4.251  0.00  0.00    +0.229 C 
ATOM      8  O   SER A   2      -8.600  16.898   3.930  0.00  0.00    -0.286 OA
ENDBRANCH   6   7
BRANCH   6   9
ATOM      9  CB  SER A   2      -5.553  15.521   4.330  0.00  0.00    +0.165 C 
BRANCH   9  10
ATOM     10  OG  SER A   2      -4.684  16.371   3.585  0.00  0.00    -0.380 OA
ATOM     11  H   SER A   2      -4.192  16.964   4.206  0.00  0.00    +0.211 HD
ENDBRANCH   9  10
ENDBRANCH   6   9
ENDBRANCH   4   6
ENDBRANCH   1   2
BRANCH   1  12
ATOM     12  N   TRP A   1      -7.275  16.487   9.038  0.00  0.00    -0.238 NA
ATOM     13  H   TRP A   1      -7.602  16.028   9.912  0.00  0.00    +0.142 HD
ENDBRANCH   1  12
BRANCH   1  14
ATOM     14  CB  TRP A   1      -5.547  14.694   8.781  0.00  0.00    +0.054 C 
BRANCH  14  15
ATOM     15  CG  TRP A   1      -4.640  14.072   7.783  0.00  0.00    -0.002 A 
ATOM     16  CD2 TRP A   1      -3.403  14.623   7.307  0.00  0.00    +0.013 A 
ATOM     17  CE3 TRP A   1      -2.647  15.768   7.640  0.00  0.00    +0.001 A 
ATOM     18  CZ3 TRP A   1      -1.438  15.999   6.981  0.00  0.00    +0.000 A 
ATOM     19  CH2 TRP A   1      -0.966  15.105   6.005  0.00  0.00    +0.001 A 
ATOM     20  CZ2 TRP A   1      -1.710  13.987   5.652  0.00  0.00    +0.017 A 
ATOM     21  CE2 TRP A   1      -2.913  13.756   6.323  0.00  0.00    +0.056 A 
ATOM     22  NE1 TRP A   1      -3.816  12.728   6.201  0.00  0.00    -0.352 N 
ATOM     23  HE1 TRP A   1      -3.724  11.919   5.554  0.00  0.00    +0.166 HD
ATOM     24  CD1 TRP A   1      -4.859  12.939   7.069  0.00  0.00    +0.068 A 
ENDBRANCH  14  15
ENDBRANCH   1  14
TORSDOF 8
REMARK  Name = ../refined-set-2016/1oif/1oif_pocket.pdb
REMARK  150 active torsions:
REMARK  status: ('A' for Active; 'I' for Inactive)
REMARK    1  A    between atoms: _1  and  _3
REMARK    2  A    between atoms: _3  and  _4
REMARK    3  A    between atoms: _7  and  _9
REMARK    4  A    between atoms: _9  and  _10
REMARK    5  A    between atoms: _9  and  _12
REMARK    6  A    between atoms: _12  and  _13
REMARK    7  A    between atoms: _16  and  _18
REMARK    8  A    between atoms: _18  and  _19
REMARK    9  A    between atoms: _22  and  _24
REMARK   10  A    between atoms: _24  and  _25
REMARK   11  A    between atoms: _24  and  _27
REMARK   12  A    between atoms: _27  and  _28
REMARK   13  A    between atoms: _30  and  _32
REMARK   14  A    between atoms: _32  and  _33
REMARK   15  A    between atoms: _32  and  _35
REMARK   16  A    between atoms: _35  and  _36
REMARK   17  A    between atoms: _41  and  _42
REMARK   18  A    between atoms: _44  and  _46
REMARK   19  A    between atoms: _46  and  _47
REMARK   20  A    between atoms: _46  and  _49
REMARK   21  A    between atoms: _49  and  _50
REMARK   22  A    between atoms: _50  and  _51
REMARK   23  A    between atoms: _56  and  _58
REMARK   24  A    between atoms: _58  and  _59
REMARK   25  A    between atoms: _58  and  _61
REMARK   26  A    between atoms: _61  and  _62
REMARK   27  A    between atoms: _62  and  _63
REMARK   28  A    between atoms: _63  and  _64
REMARK   29  A    between atoms: _73  and  _75
REMARK   30  A    between atoms: _75  and  _76
REMARK   31  A    between atoms: _75  and  _78
REMARK   32  A    between atoms: _78  and  _79
REMARK   33  A    between atoms: _84  and  _86
REMARK   34  A    between atoms: _86  and  _87
REMARK   35  A    between atoms: _86  and  _89
REMARK   36  A    between atoms: _89  and  _90
REMARK   37  A    between atoms: _100  and  _102
REMARK   38  A    between atoms: _102  and  _103
REMARK   39  A    between atoms: _102  and  _105
REMARK   40  A    between atoms: _105  and  _106
REMARK   41  A    between atoms: _111  and  _113
REMARK   42  A    between atoms: _113  and  _114
REMARK   43  A    between atoms: _113  and  _116
REMARK   44  A    between atoms: _116  and  _117
REMARK   45  A    between atoms: _117  and  _118
REMARK   46  A    between atoms: _121  and  _123
REMARK   47  A    between atoms: _123  and  _124
REMARK   48  A    between atoms: _123  and  _126
REMARK   49  A    between atoms: _129  and  _131
REMARK   50  A    between atoms: _131  and  _132
REMARK   51  A    between atoms: _131  and  _134
REMARK   52  A    between atoms: _134  and  _135
REMARK   53  A    between atoms: _140  and  _142
REMARK   54  A    between atoms: _142  and  _143
REMARK   55  A    between atoms: _142  and  _145
REMARK   56  A    between atoms: _148  and  _150
REMARK   57  A    between atoms: _150  and  _151
REMARK   58  A    between atoms: _150  and  _153
REMARK   59  A    between atoms: _153  and  _154
REMARK   60  A    between atoms: _160  and  _162
REMARK   61  A    between atoms: _162  and  _163
REMARK   62  A    between atoms: _162  and  _165
REMARK   63  A    between atoms: _165  and  _166
REMARK   64  A    between atoms: _171  and  _173
REMARK   65  A    between atoms: _173  and  _174
REMARK   66  A    between atoms: _173  and  _176
REMARK   67  A    between atoms: _176  and  _177
REMARK   68  A    between atoms: _182  and  _184
REMARK   69  A    between atoms: _184  and  _185
REMARK   70  A    between atoms: _184  and  _187
REMARK   71  A    between atoms: _187  and  _188
REMARK   72  A    between atoms: _193  and  _195
REMARK   73  A    between atoms: _195  and  _196
REMARK   74  A    between atoms: _195  and  _198
REMARK   75  A    between atoms: _198  and  _199
REMARK   76  A    between atoms: _204  and  _205
REMARK   77  A    between atoms: _207  and  _209
REMARK   78  A    between atoms: _209  and  _210
REMARK   79  A    between atoms: _209  and  _212
REMARK   80  A    between atoms: _212  and  _213
REMARK   81  A    between atoms: _218  and  _219
REMARK   82  A    between atoms: _221  and  _223
REMARK   83  A    between atoms: _223  and  _224
REMARK   84  A    between atoms: _223  and  _226
REMARK   85  A    between atoms: _226  and  _227
REMARK   86  A    between atoms: _227  and  _228
REMARK   87  A    between atoms: _230  and  _232
REMARK   88  A    between atoms: _232  and  _233
REMARK   89  A    between atoms: _232  and  _235
REMARK   90  A    between atoms: _235  and  _236
REMARK   91  A    between atoms: _246  and  _248
REMARK   92  A    between atoms: _248  and  _249
REMARK   93  A    between atoms: _248  and  _251
REMARK   94  A    between atoms: _251  and  _252
REMARK   95  A    between atoms: _255  and  _257
REMARK   96  A    between atoms: _257  and  _258
REMARK   97  A    between atoms: _257  and  _260
REMARK   98  A    between atoms: _260  and  _261
REMARK   99  A    between atoms: _261  and  _262
REMARK  100  A    between atoms: _265  and  _267
REMARK  101  A    between atoms: _267  and  _268
REMARK  102  A    between atoms: _267  and  _270
REMARK  103  A    between atoms: _270  and  _271
REMARK  104  A    between atoms: _276  and  _278
REMARK  105  A    between atoms: _278  and  _279
REMARK  106  A    between atoms: _281  and  _283
REMARK  107  A    between atoms: _283  and  _284
REMARK  108  A    between atoms: _287  and  _289
REMARK  109  A    between atoms: _289  and  _290
REMARK  110  A    between atoms: _293  and  _295
REMARK  111  A    between atoms: _295  and  _296
REMARK  112  A    between atoms: _295  and  _298
REMARK  113  A    between atoms: _298  and  _299
REMARK  114  A    between atoms: _309  and  _311
REMARK  115  A    between atoms: _311  and  _312
REMARK  116  A    between atoms: _311  and  _314
REMARK  117  A    between atoms: _314  and  _315
REMARK  118  A    between atoms: _317  and  _319
REMARK  119  A    between atoms: _319  and  _320
REMARK  120  A    between atoms: _319  and  _322
REMARK  121  A    between atoms: _322  and  _323
REMARK  122  A    between atoms: _328  and  _330
REMARK  123  A    between atoms: _330  and  _331
REMARK  124  A    between atoms: _330  and  _333
REMARK  125  A    between atoms: _333  and  _334
REMARK  126  A    between atoms: _340  and  _342
REMARK  127  A    between atoms: _342  and  _343
REMARK  128  A    between atoms: _342  and  _345
REMARK  129  A    between atoms: _345  and  _346
REMARK  130  A    between atoms: _346  and  _347
REMARK  131  A    between atoms: _350  and  _352
REMARK  132  A    between atoms: _352  and  _353
REMARK  133  A    between atoms: _352  and  _355
REMARK  134  A    between atoms: _355  and  _356
REMARK  135  A    between atoms: _366  and  _368
REMARK  136  A    between atoms: _368  and  _369
REMARK  137  A    between atoms: _368  and  _371
REMARK  138  A    between atoms: _371  and  _372
REMARK  139  A    between atoms: _372  and  _373
REMARK  140  A    between atoms: _376  and  _378
REMARK  141  A    between atoms: _378  and  _379
REMARK  142  A    between atoms: _378  and  _381
REMARK  143  A    between atoms: _381  and  _382
REMARK  144  A    between atoms: _382  and  _383
REMARK  145  A    between atoms: _383  and  _384
REMARK  146  A    between atoms: _384  and  _385
REMARK  147  A    between atoms: _389  and  _391
REMARK  148  A    between atoms: _391  and  _392
REMARK  149  A    between atoms: _391  and  _394
REMARK  150  A    between atoms: _394  and  _395
REMARK                            x       y       z     vdW  Elec       q    Type
REMARK                         _______ _______ _______ _____ _____    ______ ____
ROOT
ATOM      1  C   PHE A   2      -0.057   9.208   0.617  0.00  0.00    +0.241 C 
ATOM      2  O   PHE A   2       0.581   9.849   1.439  0.00  0.00    -0.273 OA
ATOM      3  N   GLU A   3      -0.744   8.127   0.954  0.00  0.00    -0.297 N 
ATOM      4  H   GLU A   3      -1.271   7.599   0.230  0.00  0.00    +0.150 HD
ENDROOT
BRANCH   3   5
ATOM      5  CA  GLU A   3      -0.761   7.675   2.350  0.00  0.00    +0.149 C 
BRANCH   5   6
ATOM      6  C   GLU A   3       0.405   6.734   2.726  0.00  0.00    +0.241 C 
ATOM      7  O   GLU A   3       0.196   5.591   3.169  0.00  0.00    -0.273 OA
ATOM      8  N   TRP A   4       1.633   7.234   2.554  0.00  0.00    -0.298 N 
ATOM      9  H   TRP A   4       1.741   8.153   2.080  0.00  0.00    +0.150 HD
BRANCH   8  10
ATOM     10  CA  TRP A   4       2.826   6.531   3.010  0.00  0.00    +0.141 C 
BRANCH  10  11
ATOM     11  C   TRP A   4       2.900   5.079   2.460  0.00  0.00    +0.227 C 
ATOM     12  O   TRP A   4       2.785   4.900   1.274  0.00  0.00    -0.286 OA
ENDBRANCH  10  11
BRANCH  10  13
ATOM     13  CB  TRP A   4       2.968   6.659   4.529  0.00  0.00    +0.056 C 
BRANCH  13  14
ATOM     14  CG  TRP A   4       2.942   8.127   4.966  0.00  0.00    -0.002 A 
ATOM     15  CD1 TRP A   4       2.011   8.743   5.748  0.00  0.00    +0.068 A 
ATOM     16  NE1 TRP A   4       2.334  10.078   5.904  0.00  0.00    -0.352 N 
ATOM     17  HE1 TRP A   4       1.803  10.758   6.484  0.00  0.00    +0.166 HD
ATOM     18  CE2 TRP A   4       3.458  10.370   5.180  0.00  0.00    +0.056 A 
ATOM     19  CZ2 TRP A   4       4.157  11.591   5.028  0.00  0.00    +0.017 A 
ATOM     20  CH2 TRP A   4       5.296  11.583   4.247  0.00  0.00    +0.001 A 
ATOM     21  CZ3 TRP A   4       5.751  10.398   3.622  0.00  0.00    +0.000 A 
ATOM     22  CE3 TRP A   4       5.041   9.175   3.769  0.00  0.00    +0.001 A 
ATOM     23  CD2 TRP A   4       3.880   9.161   4.570  0.00  0.00    +0.013 A 
ENDBRANCH  13  14
ENDBRANCH  10  13
ENDBRANCH   8  10
ENDBRANCH   5   6
BRANCH   5  24
ATOM     24  CB  GLU A   3      -2.122   7.068   2.713  0.00  0.00    +0.041 C 
BRANCH  24  25
ATOM     25  CG  GLU A   3      -2.275   6.557   4.154  0.00  0.00    +0.116 C 
BRANCH  25  26
ATOM     26  CD  GLU A   3      -1.969   7.586   5.253  0.00  0.00    +0.365 C 
ATOM     27  OE2 GLU A   3      -1.513   7.163   6.342  0.00  0.00    -0.246 OA
ATOM     28  OE1 GLU A   3      -2.263   8.808   5.091  0.00  0.00    -0.246 OA
ENDBRANCH  25  26
ENDBRANCH  24  25
ENDBRANCH   5  24
ENDBRANCH   3   5
BRANCH   1  29
ATOM     29  CA  PHE A   2      -0.101   9.637  -0.837  0.00  0.00    +0.153 C 
BRANCH  29  32
ATOM     30  C   ASN A   1      -2.302  10.771  -0.845  0.00  0.00    +0.239 C 
ATOM     31  O   ASN A   1      -2.891   9.722  -0.635  0.00  0.00    -0.274 OA
ATOM     32  N   PHE A   2      -0.964  10.840  -0.959  0.00  0.00    -0.297 N 
ATOM     33  H   PHE A   2      -0.520  11.763  -1.138  0.00  0.00    +0.150 HD
BRANCH  30  34
ATOM     34  CA  ASN A   1      -3.112  12.092  -0.959  0.00  0.00    +0.154 C 
BRANCH  34  35
ATOM     35  N   ASN A   1      -4.545  11.950  -0.647  0.00  0.00    -0.238 NA
ATOM     36  H   ASN A   1      -4.883  11.184  -0.031  0.00  0.00    +0.142 HD
ENDBRANCH  34  35
BRANCH  34  37
ATOM     37  CB  ASN A   1      -2.513  13.231  -0.101  0.00  0.00    +0.111 C 
BRANCH  37  38
ATOM     38  CG  ASN A   1      -2.591  12.952   1.386  0.00  0.00    +0.221 C 
ATOM     39  ND2 ASN A   1      -3.269  13.828   2.143  0.00  0.00    -0.329 N 
ATOM     40 HD21 ASN A   1      -3.350  13.676   3.169  0.00  0.00    +0.145 HD
ATOM     41 HD22 ASN A   1      -3.714  14.659   1.704  0.00  0.00    +0.145 HD
ATOM     42  OD1 ASN A   1      -2.047  11.954   1.855  0.00  0.00    -0.275 OA
ENDBRANCH  37  38
ENDBRANCH  34  37
ENDBRANCH  30  34
ENDBRANCH  29  32
BRANCH  29  43
ATOM     43  CB  PHE A   2       1.300   9.944  -1.404  0.00  0.00    +0.055 C 
BRANCH  43  44
ATOM     44  CG  PHE A   2       2.353   8.841  -1.193  0.00  0.00    -0.020 A 
ATOM     45  CD2 PHE A   2       3.246   8.907  -0.121  0.00  0.00    -0.004 A 
ATOM     46  CE2 PHE A   2       4.236   7.923   0.047  0.00  0.00    -0.000 A 
ATOM     47  CZ  PHE A   2       4.329   6.836  -0.862  0.00  0.00    -0.000 A 
ATOM     48  CE1 PHE A   2       3.465   6.763  -1.938  0.00  0.00    -0.000 A 
ATOM     49  CD1 PHE A   2       2.480   7.773  -2.102  0.00  0.00    -0.004 A 
ENDBRANCH  43  44
ENDBRANCH  29  43
ENDBRANCH   1  29
TORSDOF 17
REMARK  Name = ../refined-set-2016/1oif/1oif_pocket.pdb
REMARK  150 active torsions:
REMARK  status: ('A' for Active; 'I' for Inactive)
REMARK    1  A    between atoms: _1  and  _3
REMARK    2  A    between atoms: _3  and  _4
REMARK    3  A    between atoms: _7  and  _9
REMARK    4  A    between atoms: _9  and  _10
REMARK    5  A    between atoms: _9  and  _12
REMARK    6  A    between atoms: _12  and  _13
REMARK    7  A    between atoms: _16  and  _18
REMARK    8  A    between atoms: _18  and  _19
REMARK    9  A    between atoms: _22  and  _24
REMARK   10  A    between atoms: _24  and  _25
REMARK   11  A    between atoms: _24  and  _27
REMARK   12  A    between atoms: _27  and  _28
REMARK   13  A    between atoms: _30  and  _32
REMARK   14  A    between atoms: _32  and  _33
REMARK   15  A    between atoms: _32  and  _35
REMARK   16  A    between atoms: _35  and  _36
REMARK   17  A    between atoms: _41  and  _42
REMARK   18  A    between atoms: _44  and  _46
REMARK   19  A    between atoms: _46  and  _47
REMARK   20  A    between atoms: _46  and  _49
REMARK   21  A    between atoms: _49  and  _50
REMARK   22  A    between atoms: _50  and  _51
REMARK   23  A    between atoms: _56  and  _58
REMARK   24  A    between atoms: _58  and  _59
REMARK   25  A    between atoms: _58  and  _61
REMARK   26  A    between atoms: _61  and  _62
REMARK   27  A    between atoms: _62  and  _63
REMARK   28  A    between atoms: _63  and  _64
REMARK   29  A    between atoms: _73  and  _75
REMARK   30  A    between atoms: _75  and  _76
REMARK   31  A    between atoms: _75  and  _78
REMARK   32  A    between atoms: _78  and  _79
REMARK   33  A    between atoms: _84  and  _86
REMARK   34  A    between atoms: _86  and  _87
REMARK   35  A    between atoms: _86  and  _89
REMARK   36  A    between atoms: _89  and  _90
REMARK   37  A    between atoms: _100  and  _102
REMARK   38  A    between atoms: _102  and  _103
REMARK   39  A    between atoms: _102  and  _105
REMARK   40  A    between atoms: _105  and  _106
REMARK   41  A    between atoms: _111  and  _113
REMARK   42  A    between atoms: _113  and  _114
REMARK   43  A    between atoms: _113  and  _116
REMARK   44  A    between atoms: _116  and  _117
REMARK   45  A    between atoms: _117  and  _118
REMARK   46  A    between atoms: _121  and  _123
REMARK   47  A    between atoms: _123  and  _124
REMARK   48  A    between atoms: _123  and  _126
REMARK   49  A    between atoms: _129  and  _131
REMARK   50  A    between atoms: _131  and  _132
REMARK   51  A    between atoms: _131  and  _134
REMARK   52  A    between atoms: _134  and  _135
REMARK   53  A    between atoms: _140  and  _142
REMARK   54  A    between atoms: _142  and  _143
REMARK   55  A    between atoms: _142  and  _145
REMARK   56  A    between atoms: _148  and  _150
REMARK   57  A    between atoms: _150  and  _151
REMARK   58  A    between atoms: _150  and  _153
REMARK   59  A    between atoms: _153  and  _154
REMARK   60  A    between atoms: _160  and  _162
REMARK   61  A    between atoms: _162  and  _163
REMARK   62  A    between atoms: _162  and  _165
REMARK   63  A    between atoms: _165  and  _166
REMARK   64  A    between atoms: _171  and  _173
REMARK   65  A    between atoms: _173  and  _174
REMARK   66  A    between atoms: _173  and  _176
REMARK   67  A    between atoms: _176  and  _177
REMARK   68  A    between atoms: _182  and  _184
REMARK   69  A    between atoms: _184  and  _185
REMARK   70  A    between atoms: _184  and  _187
REMARK   71  A    between atoms: _187  and  _188
REMARK   72  A    between atoms: _193  and  _195
REMARK   73  A    between atoms: _195  and  _196
REMARK   74  A    between atoms: _195  and  _198
REMARK   75  A    between atoms: _198  and  _199
REMARK   76  A    between atoms: _204  and  _205
REMARK   77  A    between atoms: _207  and  _209
REMARK   78  A    between atoms: _209  and  _210
REMARK   79  A    between atoms: _209  and  _212
REMARK   80  A    between atoms: _212  and  _213
REMARK   81  A    between atoms: _218  and  _219
REMARK   82  A    between atoms: _221  and  _223
REMARK   83  A    between atoms: _223  and  _224
REMARK   84  A    between atoms: _223  and  _226
REMARK   85  A    between atoms: _226  and  _227
REMARK   86  A    between atoms: _227  and  _228
REMARK   87  A    between atoms: _230  and  _232
REMARK   88  A    between atoms: _232  and  _233
REMARK   89  A    between atoms: _232  and  _235
REMARK   90  A    between atoms: _235  and  _236
REMARK   91  A    between atoms: _246  and  _248
REMARK   92  A    between atoms: _248  and  _249
REMARK   93  A    between atoms: _248  and  _251
REMARK   94  A    between atoms: _251  and  _252
REMARK   95  A    between atoms: _255  and  _257
REMARK   96  A    between atoms: _257  and  _258
REMARK   97  A    between atoms: _257  and  _260
REMARK   98  A    between atoms: _260  and  _261
REMARK   99  A    between atoms: _261  and  _262
REMARK  100  A    between atoms: _265  and  _267
REMARK  101  A    between atoms: _267  and  _268
REMARK  102  A    between atoms: _267  and  _270
REMARK  103  A    between atoms: _270  and  _271
REMARK  104  A    between atoms: _276  and  _278
REMARK  105  A    between atoms: _278  and  _279
REMARK  106  A    between atoms: _281  and  _283
REMARK  107  A    between atoms: _283  and  _284
REMARK  108  A    between atoms: _287  and  _289
REMARK  109  A    between atoms: _289  and  _290
REMARK  110  A    between atoms: _293  and  _295
REMARK  111  A    between atoms: _295  and  _296
REMARK  112  A    between atoms: _295  and  _298
REMARK  113  A    between atoms: _298  and  _299
REMARK  114  A    between atoms: _309  and  _311
REMARK  115  A    between atoms: _311  and  _312
REMARK  116  A    between atoms: _311  and  _314
REMARK  117  A    between atoms: _314  and  _315
REMARK  118  A    between atoms: _317  and  _319
REMARK  119  A    between atoms: _319  and  _320
REMARK  120  A    between atoms: _319  and  _322
REMARK  121  A    between atoms: _322  and  _323
REMARK  122  A    between atoms: _328  and  _330
REMARK  123  A    between atoms: _330  and  _331
REMARK  124  A    between atoms: _330  and  _333
REMARK  125  A    between atoms: _333  and  _334
REMARK  126  A    between atoms: _340  and  _342
REMARK  127  A    between atoms: _342  and  _343
REMARK  128  A    between atoms: _342  and  _345
REMARK  129  A    between atoms: _345  and  _346
REMARK  130  A    between atoms: _346  and  _347
REMARK  131  A    between atoms: _350  and  _352
REMARK  132  A    between atoms: _352  and  _353
REMARK  133  A    between atoms: _352  and  _355
REMARK  134  A    between atoms: _355  and  _356
REMARK  135  A    between atoms: _366  and  _368
REMARK  136  A    between atoms: _368  and  _369
REMARK  137  A    between atoms: _368  and  _371
REMARK  138  A    between atoms: _371  and  _372
REMARK  139  A    between atoms: _372  and  _373
REMARK  140  A    between atoms: _376  and  _378
REMARK  141  A    between atoms: _378  and  _379
REMARK  142  A    between atoms: _378  and  _381
REMARK  143  A    between atoms: _381  and  _382
REMARK  144  A    between atoms: _382  and  _383
REMARK  145  A    between atoms: _383  and  _384
REMARK  146  A    between atoms: _384  and  _385
REMARK  147  A    between atoms: _389  and  _391
REMARK  148  A    between atoms: _391  and  _392
REMARK  149  A    between atoms: _391  and  _394
REMARK  150  A    between atoms: _394  and  _395
REMARK                            x       y       z     vdW  Elec       q    Type
REMARK                         _______ _______ _______ _____ _____    ______ ____
ROOT
ATOM      1  CA  GLU A   1      -0.468   2.430   1.842  0.00  0.00    +0.134 C 
ENDROOT
BRANCH   1   2
ATOM      2  N   GLU A   1       0.816   2.810   2.460  0.00  0.00    -0.239 NA
ATOM      3  H   GLU A   1       0.846   3.626   3.104  0.00  0.00    +0.142 HD
ENDBRANCH   1   2
BRANCH   1   4
ATOM      4  C   GLU A   1      -0.655   3.035   0.450  0.00  0.00    +0.224 C 
ATOM      5  O   GLU A   1      -1.616   2.664  -0.244  0.00  0.00    -0.287 OA
ENDBRANCH   1   4
BRANCH   1   6
ATOM      6  CB  GLU A   1      -1.640   2.870   2.723  0.00  0.00    +0.037 C 
BRANCH   6   7
ATOM      7  CG  GLU A   1      -1.632   2.293   4.132  0.00  0.00    +0.116 C 
BRANCH   7   8
ATOM      8  CD  GLU A   1      -2.055   0.840   4.124  0.00  0.00    +0.365 C 
ATOM      9  OE2 GLU A   1      -1.430   0.034   4.852  0.00  0.00    -0.246 OA
ATOM     10  OE1 GLU A   1      -3.019   0.505   3.376  0.00  0.00    -0.246 OA
ENDBRANCH   7   8
ENDBRANCH   6   7
ENDBRANCH   1   6
TORSDOF 5
REMARK  Name = ../refined-set-2016/1oif/1oif_pocket.pdb
REMARK  150 active torsions:
REMARK  status: ('A' for Active; 'I' for Inactive)
REMARK    1  A    between atoms: _1  and  _3
REMARK    2  A    between atoms: _3  and  _4
REMARK    3  A    between atoms: _7  and  _9
REMARK    4  A    between atoms: _9  and  _10
REMARK    5  A    between atoms: _9  and  _12
REMARK    6  A    between atoms: _12  and  _13
REMARK    7  A    between atoms: _16  and  _18
REMARK    8  A    between atoms: _18  and  _19
REMARK    9  A    between atoms: _22  and  _24
REMARK   10  A    between atoms: _24  and  _25
REMARK   11  A    between atoms: _24  and  _27
REMARK   12  A    between atoms: _27  and  _28
REMARK   13  A    between atoms: _30  and  _32
REMARK   14  A    between atoms: _32  and  _33
REMARK   15  A    between atoms: _32  and  _35
REMARK   16  A    between atoms: _35  and  _36
REMARK   17  A    between atoms: _41  and  _42
REMARK   18  A    between atoms: _44  and  _46
REMARK   19  A    between atoms: _46  and  _47
REMARK   20  A    between atoms: _46  and  _49
REMARK   21  A    between atoms: _49  and  _50
REMARK   22  A    between atoms: _50  and  _51
REMARK   23  A    between atoms: _56  and  _58
REMARK   24  A    between atoms: _58  and  _59
REMARK   25  A    between atoms: _58  and  _61
REMARK   26  A    between atoms: _61  and  _62
REMARK   27  A    between atoms: _62  and  _63
REMARK   28  A    between atoms: _63  and  _64
REMARK   29  A    between atoms: _73  and  _75
REMARK   30  A    between atoms: _75  and  _76
REMARK   31  A    between atoms: _75  and  _78
REMARK   32  A    between atoms: _78  and  _79
REMARK   33  A    between atoms: _84  and  _86
REMARK   34  A    between atoms: _86  and  _87
REMARK   35  A    between atoms: _86  and  _89
REMARK   36  A    between atoms: _89  and  _90
REMARK   37  A    between atoms: _100  and  _102
REMARK   38  A    between atoms: _102  and  _103
REMARK   39  A    between atoms: _102  and  _105
REMARK   40  A    between atoms: _105  and  _106
REMARK   41  A    between atoms: _111  and  _113
REMARK   42  A    between atoms: _113  and  _114
REMARK   43  A    between atoms: _113  and  _116
REMARK   44  A    between atoms: _116  and  _117
REMARK   45  A    between atoms: _117  and  _118
REMARK   46  A    between atoms: _121  and  _123
REMARK   47  A    between atoms: _123  and  _124
REMARK   48  A    between atoms: _123  and  _126
REMARK   49  A    between atoms: _129  and  _131
REMARK   50  A    between atoms: _131  and  _132
REMARK   51  A    between atoms: _131  and  _134
REMARK   52  A    between atoms: _134  and  _135
REMARK   53  A    between atoms: _140  and  _142
REMARK   54  A    between atoms: _142  and  _143
REMARK   55  A    between atoms: _142  and  _145
REMARK   56  A    between atoms: _148  and  _150
REMARK   57  A    between atoms: _150  and  _151
REMARK   58  A    between atoms: _150  and  _153
REMARK   59  A    between atoms: _153  and  _154
REMARK   60  A    between atoms: _160  and  _162
REMARK   61  A    between atoms: _162  and  _163
REMARK   62  A    between atoms: _162  and  _165
REMARK   63  A    between atoms: _165  and  _166
REMARK   64  A    between atoms: _171  and  _173
REMARK   65  A    between atoms: _173  and  _174
REMARK   66  A    between atoms: _173  and  _176
REMARK   67  A    between atoms: _176  and  _177
REMARK   68  A    between atoms: _182  and  _184
REMARK   69  A    between atoms: _184  and  _185
REMARK   70  A    between atoms: _184  and  _187
REMARK   71  A    between atoms: _187  and  _188
REMARK   72  A    between atoms: _193  and  _195
REMARK   73  A    between atoms: _195  and  _196
REMARK   74  A    between atoms: _195  and  _198
REMARK   75  A    between atoms: _198  and  _199
REMARK   76  A    between atoms: _204  and  _205
REMARK   77  A    between atoms: _207  and  _209
REMARK   78  A    between atoms: _209  and  _210
REMARK   79  A    between atoms: _209  and  _212
REMARK   80  A    between atoms: _212  and  _213
REMARK   81  A    between atoms: _218  and  _219
REMARK   82  A    between atoms: _221  and  _223
REMARK   83  A    between atoms: _223  and  _224
REMARK   84  A    between atoms: _223  and  _226
REMARK   85  A    between atoms: _226  and  _227
REMARK   86  A    between atoms: _227  and  _228
REMARK   87  A    between atoms: _230  and  _232
REMARK   88  A    between atoms: _232  and  _233
REMARK   89  A    between atoms: _232  and  _235
REMARK   90  A    between atoms: _235  and  _236
REMARK   91  A    between atoms: _246  and  _248
REMARK   92  A    between atoms: _248  and  _249
REMARK   93  A    between atoms: _248  and  _251
REMARK   94  A    between atoms: _251  and  _252
REMARK   95  A    between atoms: _255  and  _257
REMARK   96  A    between atoms: _257  and  _258
REMARK   97  A    between atoms: _257  and  _260
REMARK   98  A    between atoms: _260  and  _261
REMARK   99  A    between atoms: _261  and  _262
REMARK  100  A    between atoms: _265  and  _267
REMARK  101  A    between atoms: _267  and  _268
REMARK  102  A    between atoms: _267  and  _270
REMARK  103  A    between atoms: _270  and  _271
REMARK  104  A    between atoms: _276  and  _278
REMARK  105  A    between atoms: _278  and  _279
REMARK  106  A    between atoms: _281  and  _283
REMARK  107  A    between atoms: _283  and  _284
REMARK  108  A    between atoms: _287  and  _289
REMARK  109  A    between atoms: _289  and  _290
REMARK  110  A    between atoms: _293  and  _295
REMARK  111  A    between atoms: _295  and  _296
REMARK  112  A    between atoms: _295  and  _298
REMARK  113  A    between atoms: _298  and  _299
REMARK  114  A    between atoms: _309  and  _311
REMARK  115  A    between atoms: _311  and  _312
REMARK  116  A    between atoms: _311  and  _314
REMARK  117  A    between atoms: _314  and  _315
REMARK  118  A    between atoms: _317  and  _319
REMARK  119  A    between atoms: _319  and  _320
REMARK  120  A    between atoms: _319  and  _322
REMARK  121  A    between atoms: _322  and  _323
REMARK  122  A    between atoms: _328  and  _330
REMARK  123  A    between atoms: _330  and  _331
REMARK  124  A    between atoms: _330  and  _333
REMARK  125  A    between atoms: _333  and  _334
REMARK  126  A    between atoms: _340  and  _342
REMARK  127  A    between atoms: _342  and  _343
REMARK  128  A    between atoms: _342  and  _345
REMARK  129  A    between atoms: _345  and  _346
REMARK  130  A    between atoms: _346  and  _347
REMARK  131  A    between atoms: _350  and  _352
REMARK  132  A    between atoms: _352  and  _353
REMARK  133  A    between atoms: _352  and  _355
REMARK  134  A    between atoms: _355  and  _356
REMARK  135  A    between atoms: _366  and  _368
REMARK  136  A    between atoms: _368  and  _369
REMARK  137  A    between atoms: _368  and  _371
REMARK  138  A    between atoms: _371  and  _372
REMARK  139  A    between atoms: _372  and  _373
REMARK  140  A    between atoms: _376  and  _378
REMARK  141  A    between atoms: _378  and  _379
REMARK  142  A    between atoms: _378  and  _381
REMARK  143  A    between atoms: _381  and  _382
REMARK  144  A    between atoms: _382  and  _383
REMARK  145  A    between atoms: _383  and  _384
REMARK  146  A    between atoms: _384  and  _385
REMARK  147  A    between atoms: _389  and  _391
REMARK  148  A    between atoms: _391  and  _392
REMARK  149  A    between atoms: _391  and  _394
REMARK  150  A    between atoms: _394  and  _395
REMARK                            x       y       z     vdW  Elec       q    Type
REMARK                         _______ _______ _______ _____ _____    ______ ____
ROOT
ATOM      1  CG  LYS A   1      -5.370   3.701   3.070  0.00  0.00    -0.000 C 
ENDROOT
BRANCH   1   2
ATOM      2  CB  LYS A   1      -5.673   5.169   2.755  0.00  0.00    +0.025 C 
BRANCH   2   3
ATOM      3  CA  LYS A   1      -6.398   5.408   1.426  0.00  0.00    +0.133 C 
BRANCH   3   4
ATOM      4  N   LYS A   1      -5.662   4.850   0.296  0.00  0.00    -0.239 NA
ATOM      5  H   LYS A   1      -4.685   5.165   0.129  0.00  0.00    +0.142 HD
ENDBRANCH   3   4
BRANCH   3   6
ATOM      6  C   LYS A   1      -6.673   6.892   1.247  0.00  0.00    +0.224 C 
ATOM      7  O   LYS A   1      -5.750   7.702   1.077  0.00  0.00    -0.287 OA
ENDBRANCH   3   6
ENDBRANCH   2   3
ENDBRANCH   1   2
BRANCH   1   8
ATOM      8  CD  LYS A   1      -6.639   2.829   2.997  0.00  0.00    -0.024 C 
BRANCH   8   9
ATOM      9  CE  LYS A   1      -6.393   1.365   3.419  0.00  0.00    -0.086 C 
BRANCH   9  10
ATOM     10  NZ  LYS A   1      -6.467   0.454   2.238  0.00  0.00    +0.380 N 
ATOM     11  HZ1 LYS A   1      -6.298  -0.525   2.546  0.00  0.00    -0.089 HD
ATOM     12  HZ2 LYS A   1      -7.410   0.525   1.805  0.00  0.00    -0.089 HD
ATOM     13  HZ3 LYS A   1      -5.744   0.730   1.543  0.00  0.00    -0.089 HD
ENDBRANCH   9  10
ENDBRANCH   8   9
ENDBRANCH   1   8
TORSDOF 7
REMARK  Name = ../refined-set-2016/1oif/1oif_pocket.pdb
REMARK  150 active torsions:
REMARK  status: ('A' for Active; 'I' for Inactive)
REMARK    1  A    between atoms: _1  and  _3
REMARK    2  A    between atoms: _3  and  _4
REMARK    3  A    between atoms: _7  and  _9
REMARK    4  A    between atoms: _9  and  _10
REMARK    5  A    between atoms: _9  and  _12
REMARK    6  A    between atoms: _12  and  _13
REMARK    7  A    between atoms: _16  and  _18
REMARK    8  A    between atoms: _18  and  _19
REMARK    9  A    between atoms: _22  and  _24
REMARK   10  A    between atoms: _24  and  _25
REMARK   11  A    between atoms: _24  and  _27
REMARK   12  A    between atoms: _27  and  _28
REMARK   13  A    between atoms: _30  and  _32
REMARK   14  A    between atoms: _32  and  _33
REMARK   15  A    between atoms: _32  and  _35
REMARK   16  A    between atoms: _35  and  _36
REMARK   17  A    between atoms: _41  and  _42
REMARK   18  A    between atoms: _44  and  _46
REMARK   19  A    between atoms: _46  and  _47
REMARK   20  A    between atoms: _46  and  _49
REMARK   21  A    between atoms: _49  and  _50
REMARK   22  A    between atoms: _50  and  _51
REMARK   23  A    between atoms: _56  and  _58
REMARK   24  A    between atoms: _58  and  _59
REMARK   25  A    between atoms: _58  and  _61
REMARK   26  A    between atoms: _61  and  _62
REMARK   27  A    between atoms: _62  and  _63
REMARK   28  A    between atoms: _63  and  _64
REMARK   29  A    between atoms: _73  and  _75
REMARK   30  A    between atoms: _75  and  _76
REMARK   31  A    between atoms: _75  and  _78
REMARK   32  A    between atoms: _78  and  _79
REMARK   33  A    between atoms: _84  and  _86
REMARK   34  A    between atoms: _86  and  _87
REMARK   35  A    between atoms: _86  and  _89
REMARK   36  A    between atoms: _89  and  _90
REMARK   37  A    between atoms: _100  and  _102
REMARK   38  A    between atoms: _102  and  _103
REMARK   39  A    between atoms: _102  and  _105
REMARK   40  A    between atoms: _105  and  _106
REMARK   41  A    between atoms: _111  and  _113
REMARK   42  A    between atoms: _113  and  _114
REMARK   43  A    between atoms: _113  and  _116
REMARK   44  A    between atoms: _116  and  _117
REMARK   45  A    between atoms: _117  and  _118
REMARK   46  A    between atoms: _121  and  _123
REMARK   47  A    between atoms: _123  and  _124
REMARK   48  A    between atoms: _123  and  _126
REMARK   49  A    between atoms: _129  and  _131
REMARK   50  A    between atoms: _131  and  _132
REMARK   51  A    between atoms: _131  and  _134
REMARK   52  A    between atoms: _134  and  _135
REMARK   53  A    between atoms: _140  and  _142
REMARK   54  A    between atoms: _142  and  _143
REMARK   55  A    between atoms: _142  and  _145
REMARK   56  A    between atoms: _148  and  _150
REMARK   57  A    between atoms: _150  and  _151
REMARK   58  A    between atoms: _150  and  _153
REMARK   59  A    between atoms: _153  and  _154
REMARK   60  A    between atoms: _160  and  _162
REMARK   61  A    between atoms: _162  and  _163
REMARK   62  A    between atoms: _162  and  _165
REMARK   63  A    between atoms: _165  and  _166
REMARK   64  A    between atoms: _171  and  _173
REMARK   65  A    between atoms: _173  and  _174
REMARK   66  A    between atoms: _173  and  _176
REMARK   67  A    between atoms: _176  and  _177
REMARK   68  A    between atoms: _182  and  _184
REMARK   69  A    between atoms: _184  and  _185
REMARK   70  A    between atoms: _184  and  _187
REMARK   71  A    between atoms: _187  and  _188
REMARK   72  A    between atoms: _193  and  _195
REMARK   73  A    between atoms: _195  and  _196
REMARK   74  A    between atoms: _195  and  _198
REMARK   75  A    between atoms: _198  and  _199
REMARK   76  A    between atoms: _204  and  _205
REMARK   77  A    between atoms: _207  and  _209
REMARK   78  A    between atoms: _209  and  _210
REMARK   79  A    between atoms: _209  and  _212
REMARK   80  A    between atoms: _212  and  _213
REMARK   81  A    between atoms: _218  and  _219
REMARK   82  A    between atoms: _221  and  _223
REMARK   83  A    between atoms: _223  and  _224
REMARK   84  A    between atoms: _223  and  _226
REMARK   85  A    between atoms: _226  and  _227
REMARK   86  A    between atoms: _227  and  _228
REMARK   87  A    between atoms: _230  and  _232
REMARK   88  A    between atoms: _232  and  _233
REMARK   89  A    between atoms: _232  and  _235
REMARK   90  A    between atoms: _235  and  _236
REMARK   91  A    between atoms: _246  and  _248
REMARK   92  A    between atoms: _248  and  _249
REMARK   93  A    between atoms: _248  and  _251
REMARK   94  A    between atoms: _251  and  _252
REMARK   95  A    between atoms: _255  and  _257
REMARK   96  A    between atoms: _257  and  _258
REMARK   97  A    between atoms: _257  and  _260
REMARK   98  A    between atoms: _260  and  _261
REMARK   99  A    between atoms: _261  and  _262
REMARK  100  A    between atoms: _265  and  _267
REMARK  101  A    between atoms: _267  and  _268
REMARK  102  A    between atoms: _267  and  _270
REMARK  103  A    between atoms: _270  and  _271
REMARK  104  A    between atoms: _276  and  _278
REMARK  105  A    between atoms: _278  and  _279
REMARK  106  A    between atoms: _281  and  _283
REMARK  107  A    between atoms: _283  and  _284
REMARK  108  A    between atoms: _287  and  _289
REMARK  109  A    between atoms: _289  and  _290
REMARK  110  A    between atoms: _293  and  _295
REMARK  111  A    between atoms: _295  and  _296
REMARK  112  A    between atoms: _295  and  _298
REMARK  113  A    between atoms: _298  and  _299
REMARK  114  A    between atoms: _309  and  _311
REMARK  115  A    between atoms: _311  and  _312
REMARK  116  A    between atoms: _311  and  _314
REMARK  117  A    between atoms: _314  and  _315
REMARK  118  A    between atoms: _317  and  _319
REMARK  119  A    between atoms: _319  and  _320
REMARK  120  A    between atoms: _319  and  _322
REMARK  121  A    between atoms: _322  and  _323
REMARK  122  A    between atoms: _328  and  _330
REMARK  123  A    between atoms: _330  and  _331
REMARK  124  A    between atoms: _330  and  _333
REMARK  125  A    between atoms: _333  and  _334
REMARK  126  A    between atoms: _340  and  _342
REMARK  127  A    between atoms: _342  and  _343
REMARK  128  A    between atoms: _342  and  _345
REMARK  129  A    between atoms: _345  and  _346
REMARK  130  A    between atoms: _346  and  _347
REMARK  131  A    between atoms: _350  and  _352
REMARK  132  A    between atoms: _352  and  _353
REMARK  133  A    between atoms: _352  and  _355
REMARK  134  A    between atoms: _355  and  _356
REMARK  135  A    between atoms: _366  and  _368
REMARK  136  A    between atoms: _368  and  _369
REMARK  137  A    between atoms: _368  and  _371
REMARK  138  A    between atoms: _371  and  _372
REMARK  139  A    between atoms: _372  and  _373
REMARK  140  A    between atoms: _376  and  _378
REMARK  141  A    between atoms: _378  and  _379
REMARK  142  A    between atoms: _378  and  _381
REMARK  143  A    between atoms: _381  and  _382
REMARK  144  A    between atoms: _382  and  _383
REMARK  145  A    between atoms: _383  and  _384
REMARK  146  A    between atoms: _384  and  _385
REMARK  147  A    between atoms: _389  and  _391
REMARK  148  A    between atoms: _391  and  _392
REMARK  149  A    between atoms: _391  and  _394
REMARK  150  A    between atoms: _394  and  _395
REMARK                            x       y       z     vdW  Elec       q    Type
REMARK                         _______ _______ _______ _____ _____    ______ ____
ROOT
ATOM      1  CB  PHE A   1      -7.146  11.293   4.852  0.00  0.00    +0.051 C 
ENDROOT
BRANCH   1   2
ATOM      2  CG  PHE A   1      -6.844  10.152   5.761  0.00  0.00    -0.020 A 
ATOM      3  CD2 PHE A   1      -7.371  10.111   7.055  0.00  0.00    -0.004 A 
ATOM      4  CE2 PHE A   1      -7.097   9.053   7.907  0.00  0.00    -0.000 A 
ATOM      5  CZ  PHE A   1      -6.276   8.014   7.480  0.00  0.00    -0.000 A 
ATOM      6  CE1 PHE A   1      -5.721   8.049   6.180  0.00  0.00    -0.000 A 
ATOM      7  CD1 PHE A   1      -6.006   9.114   5.341  0.00  0.00    -0.004 A 
ENDBRANCH   1   2
BRANCH   1   8
ATOM      8  CA  PHE A   1      -8.378  11.076   3.935  0.00  0.00    +0.137 C 
BRANCH   8   9
ATOM      9  N   PHE A   1      -8.030  10.306   2.725  0.00  0.00    -0.239 NA
ATOM     10  H   PHE A   1      -7.166  10.544   2.198  0.00  0.00    +0.142 HD
ENDBRANCH   8   9
BRANCH   8  11
ATOM     11  C   PHE A   1      -8.981  12.463   3.641  0.00  0.00    +0.224 C 
ATOM     12  O   PHE A   1      -9.343  13.150   4.593  0.00  0.00    -0.287 OA
ENDBRANCH   8  11
ENDBRANCH   1   8
TORSDOF 4
REMARK  Name = ../refined-set-2016/1oif/1oif_pocket.pdb
REMARK  150 active torsions:
REMARK  status: ('A' for Active; 'I' for Inactive)
REMARK    1  A    between atoms: _1  and  _3
REMARK    2  A    between atoms: _3  and  _4
REMARK    3  A    between atoms: _7  and  _9
REMARK    4  A    between atoms: _9  and  _10
REMARK    5  A    between atoms: _9  and  _12
REMARK    6  A    between atoms: _12  and  _13
REMARK    7  A    between atoms: _16  and  _18
REMARK    8  A    between atoms: _18  and  _19
REMARK    9  A    between atoms: _22  and  _24
REMARK   10  A    between atoms: _24  and  _25
REMARK   11  A    between atoms: _24  and  _27
REMARK   12  A    between atoms: _27  and  _28
REMARK   13  A    between atoms: _30  and  _32
REMARK   14  A    between atoms: _32  and  _33
REMARK   15  A    between atoms: _32  and  _35
REMARK   16  A    between atoms: _35  and  _36
REMARK   17  A    between atoms: _41  and  _42
REMARK   18  A    between atoms: _44  and  _46
REMARK   19  A    between atoms: _46  and  _47
REMARK   20  A    between atoms: _46  and  _49
REMARK   21  A    between atoms: _49  and  _50
REMARK   22  A    between atoms: _50  and  _51
REMARK   23  A    between atoms: _56  and  _58
REMARK   24  A    between atoms: _58  and  _59
REMARK   25  A    between atoms: _58  and  _61
REMARK   26  A    between atoms: _61  and  _62
REMARK   27  A    between atoms: _62  and  _63
REMARK   28  A    between atoms: _63  and  _64
REMARK   29  A    between atoms: _73  and  _75
REMARK   30  A    between atoms: _75  and  _76
REMARK   31  A    between atoms: _75  and  _78
REMARK   32  A    between atoms: _78  and  _79
REMARK   33  A    between atoms: _84  and  _86
REMARK   34  A    between atoms: _86  and  _87
REMARK   35  A    between atoms: _86  and  _89
REMARK   36  A    between atoms: _89  and  _90
REMARK   37  A    between atoms: _100  and  _102
REMARK   38  A    between atoms: _102  and  _103
REMARK   39  A    between atoms: _102  and  _105
REMARK   40  A    between atoms: _105  and  _106
REMARK   41  A    between atoms: _111  and  _113
REMARK   42  A    between atoms: _113  and  _114
REMARK   43  A    between atoms: _113  and  _116
REMARK   44  A    between atoms: _116  and  _117
REMARK   45  A    between atoms: _117  and  _118
REMARK   46  A    between atoms: _121  and  _123
REMARK   47  A    between atoms: _123  and  _124
REMARK   48  A    between atoms: _123  and  _126
REMARK   49  A    between atoms: _129  and  _131
REMARK   50  A    between atoms: _131  and  _132
REMARK   51  A    between atoms: _131  and  _134
REMARK   52  A    between atoms: _134  and  _135
REMARK   53  A    between atoms: _140  and  _142
REMARK   54  A    between atoms: _142  and  _143
REMARK   55  A    between atoms: _142  and  _145
REMARK   56  A    between atoms: _148  and  _150
REMARK   57  A    between atoms: _150  and  _151
REMARK   58  A    between atoms: _150  and  _153
REMARK   59  A    between atoms: _153  and  _154
REMARK   60  A    between atoms: _160  and  _162
REMARK   61  A    between atoms: _162  and  _163
REMARK   62  A    between atoms: _162  and  _165
REMARK   63  A    between atoms: _165  and  _166
REMARK   64  A    between atoms: _171  and  _173
REMARK   65  A    between atoms: _173  and  _174
REMARK   66  A    between atoms: _173  and  _176
REMARK   67  A    between atoms: _176  and  _177
REMARK   68  A    between atoms: _182  and  _184
REMARK   69  A    between atoms: _184  and  _185
REMARK   70  A    between atoms: _184  and  _187
REMARK   71  A    between atoms: _187  and  _188
REMARK   72  A    between atoms: _193  and  _195
REMARK   73  A    between atoms: _195  and  _196
REMARK   74  A    between atoms: _195  and  _198
REMARK   75  A    between atoms: _198  and  _199
REMARK   76  A    between atoms: _204  and  _205
REMARK   77  A    between atoms: _207  and  _209
REMARK   78  A    between atoms: _209  and  _210
REMARK   79  A    between atoms: _209  and  _212
REMARK   80  A    between atoms: _212  and  _213
REMARK   81  A    between atoms: _218  and  _219
REMARK   82  A    between atoms: _221  and  _223
REMARK   83  A    between atoms: _223  and  _224
REMARK   84  A    between atoms: _223  and  _226
REMARK   85  A    between atoms: _226  and  _227
REMARK   86  A    between atoms: _227  and  _228
REMARK   87  A    between atoms: _230  and  _232
REMARK   88  A    between atoms: _232  and  _233
REMARK   89  A    between atoms: _232  and  _235
REMARK   90  A    between atoms: _235  and  _236
REMARK   91  A    between atoms: _246  and  _248
REMARK   92  A    between atoms: _248  and  _249
REMARK   93  A    between atoms: _248  and  _251
REMARK   94  A    between atoms: _251  and  _252
REMARK   95  A    between atoms: _255  and  _257
REMARK   96  A    between atoms: _257  and  _258
REMARK   97  A    between atoms: _257  and  _260
REMARK   98  A    between atoms: _260  and  _261
REMARK   99  A    between atoms: _261  and  _262
REMARK  100  A    between atoms: _265  and  _267
REMARK  101  A    between atoms: _267  and  _268
REMARK  102  A    between atoms: _267  and  _270
REMARK  103  A    between atoms: _270  and  _271
REMARK  104  A    between atoms: _276  and  _278
REMARK  105  A    between atoms: _278  and  _279
REMARK  106  A    between atoms: _281  and  _283
REMARK  107  A    between atoms: _283  and  _284
REMARK  108  A    between atoms: _287  and  _289
REMARK  109  A    between atoms: _289  and  _290
REMARK  110  A    between atoms: _293  and  _295
REMARK  111  A    between atoms: _295  and  _296
REMARK  112  A    between atoms: _295  and  _298
REMARK  113  A    between atoms: _298  and  _299
REMARK  114  A    between atoms: _309  and  _311
REMARK  115  A    between atoms: _311  and  _312
REMARK  116  A    between atoms: _311  and  _314
REMARK  117  A    between atoms: _314  and  _315
REMARK  118  A    between atoms: _317  and  _319
REMARK  119  A    between atoms: _319  and  _320
REMARK  120  A    between atoms: _319  and  _322
REMARK  121  A    between atoms: _322  and  _323
REMARK  122  A    between atoms: _328  and  _330
REMARK  123  A    between atoms: _330  and  _331
REMARK  124  A    between atoms: _330  and  _333
REMARK  125  A    between atoms: _333  and  _334
REMARK  126  A    between atoms: _340  and  _342
REMARK  127  A    between atoms: _342  and  _343
REMARK  128  A    between atoms: _342  and  _345
REMARK  129  A    between atoms: _345  and  _346
REMARK  130  A    between atoms: _346  and  _347
REMARK  131  A    between atoms: _350  and  _352
REMARK  132  A    between atoms: _352  and  _353
REMARK  133  A    between atoms: _352  and  _355
REMARK  134  A    between atoms: _355  and  _356
REMARK  135  A    between atoms: _366  and  _368
REMARK  136  A    between atoms: _368  and  _369
REMARK  137  A    between atoms: _368  and  _371
REMARK  138  A    between atoms: _371  and  _372
REMARK  139  A    between atoms: _372  and  _373
REMARK  140  A    between atoms: _376  and  _378
REMARK  141  A    between atoms: _378  and  _379
REMARK  142  A    between atoms: _378  and  _381
REMARK  143  A    between atoms: _381  and  _382
REMARK  144  A    between atoms: _382  and  _383
REMARK  145  A    between atoms: _383  and  _384
REMARK  146  A    between atoms: _384  and  _385
REMARK  147  A    between atoms: _389  and  _391
REMARK  148  A    between atoms: _391  and  _392
REMARK  149  A    between atoms: _391  and  _394
REMARK  150  A    between atoms: _394  and  _395
REMARK                            x       y       z     vdW  Elec       q    Type
REMARK                         _______ _______ _______ _____ _____    ______ ____
ROOT
ATOM      1  O   HOH     1       2.251   4.645  11.543  0.00  0.00    +0.000 OA
ENDROOT
TORSDOF 0
REMARK  Name = ../refined-set-2016/1oif/1oif_pocket.pdb
REMARK  150 active torsions:
REMARK  status: ('A' for Active; 'I' for Inactive)
REMARK    1  A    between atoms: _1  and  _3
REMARK    2  A    between atoms: _3  and  _4
REMARK    3  A    between atoms: _7  and  _9
REMARK    4  A    between atoms: _9  and  _10
REMARK    5  A    between atoms: _9  and  _12
REMARK    6  A    between atoms: _12  and  _13
REMARK    7  A    between atoms: _16  and  _18
REMARK    8  A    between atoms: _18  and  _19
REMARK    9  A    between atoms: _22  and  _24
REMARK   10  A    between atoms: _24  and  _25
REMARK   11  A    between atoms: _24  and  _27
REMARK   12  A    between atoms: _27  and  _28
REMARK   13  A    between atoms: _30  and  _32
REMARK   14  A    between atoms: _32  and  _33
REMARK   15  A    between atoms: _32  and  _35
REMARK   16  A    between atoms: _35  and  _36
REMARK   17  A    between atoms: _41  and  _42
REMARK   18  A    between atoms: _44  and  _46
REMARK   19  A    between atoms: _46  and  _47
REMARK   20  A    between atoms: _46  and  _49
REMARK   21  A    between atoms: _49  and  _50
REMARK   22  A    between atoms: _50  and  _51
REMARK   23  A    between atoms: _56  and  _58
REMARK   24  A    between atoms: _58  and  _59
REMARK   25  A    between atoms: _58  and  _61
REMARK   26  A    between atoms: _61  and  _62
REMARK   27  A    between atoms: _62  and  _63
REMARK   28  A    between atoms: _63  and  _64
REMARK   29  A    between atoms: _73  and  _75
REMARK   30  A    between atoms: _75  and  _76
REMARK   31  A    between atoms: _75  and  _78
REMARK   32  A    between atoms: _78  and  _79
REMARK   33  A    between atoms: _84  and  _86
REMARK   34  A    between atoms: _86  and  _87
REMARK   35  A    between atoms: _86  and  _89
REMARK   36  A    between atoms: _89  and  _90
REMARK   37  A    between atoms: _100  and  _102
REMARK   38  A    between atoms: _102  and  _103
REMARK   39  A    between atoms: _102  and  _105
REMARK   40  A    between atoms: _105  and  _106
REMARK   41  A    between atoms: _111  and  _113
REMARK   42  A    between atoms: _113  and  _114
REMARK   43  A    between atoms: _113  and  _116
REMARK   44  A    between atoms: _116  and  _117
REMARK   45  A    between atoms: _117  and  _118
REMARK   46  A    between atoms: _121  and  _123
REMARK   47  A    between atoms: _123  and  _124
REMARK   48  A    between atoms: _123  and  _126
REMARK   49  A    between atoms: _129  and  _131
REMARK   50  A    between atoms: _131  and  _132
REMARK   51  A    between atoms: _131  and  _134
REMARK   52  A    between atoms: _134  and  _135
REMARK   53  A    between atoms: _140  and  _142
REMARK   54  A    between atoms: _142  and  _143
REMARK   55  A    between atoms: _142  and  _145
REMARK   56  A    between atoms: _148  and  _150
REMARK   57  A    between atoms: _150  and  _151
REMARK   58  A    between atoms: _150  and  _153
REMARK   59  A    between atoms: _153  and  _154
REMARK   60  A    between atoms: _160  and  _162
REMARK   61  A    between atoms: _162  and  _163
REMARK   62  A    between atoms: _162  and  _165
REMARK   63  A    between atoms: _165  and  _166
REMARK   64  A    between atoms: _171  and  _173
REMARK   65  A    between atoms: _173  and  _174
REMARK   66  A    between atoms: _173  and  _176
REMARK   67  A    between atoms: _176  and  _177
REMARK   68  A    between atoms: _182  and  _184
REMARK   69  A    between atoms: _184  and  _185
REMARK   70  A    between atoms: _184  and  _187
REMARK   71  A    between atoms: _187  and  _188
REMARK   72  A    between atoms: _193  and  _195
REMARK   73  A    between atoms: _195  and  _196
REMARK   74  A    between atoms: _195  and  _198
REMARK   75  A    between atoms: _198  and  _199
REMARK   76  A    between atoms: _204  and  _205
REMARK   77  A    between atoms: _207  and  _209
REMARK   78  A    between atoms: _209  and  _210
REMARK   79  A    between atoms: _209  and  _212
REMARK   80  A    between atoms: _212  and  _213
REMARK   81  A    between atoms: _218  and  _219
REMARK   82  A    between atoms: _221  and  _223
REMARK   83  A    between atoms: _223  and  _224
REMARK   84  A    between atoms: _223  and  _226
REMARK   85  A    between atoms: _226  and  _227
REMARK   86  A    between atoms: _227  and  _228
REMARK   87  A    between atoms: _230  and  _232
REMARK   88  A    between atoms: _232  and  _233
REMARK   89  A    between atoms: _232  and  _235
REMARK   90  A    between atoms: _235  and  _236
REMARK   91  A    between atoms: _246  and  _248
REMARK   92  A    between atoms: _248  and  _249
REMARK   93  A    between atoms: _248  and  _251
REMARK   94  A    between atoms: _251  and  _252
REMARK   95  A    between atoms: _255  and  _257
REMARK   96  A    between atoms: _257  and  _258
REMARK   97  A    between atoms: _257  and  _260
REMARK   98  A    between atoms: _260  and  _261
REMARK   99  A    between atoms: _261  and  _262
REMARK  100  A    between atoms: _265  and  _267
REMARK  101  A    between atoms: _267  and  _268
REMARK  102  A    between atoms: _267  and  _270
REMARK  103  A    between atoms: _270  and  _271
REMARK  104  A    between atoms: _276  and  _278
REMARK  105  A    between atoms: _278  and  _279
REMARK  106  A    between atoms: _281  and  _283
REMARK  107  A    between atoms: _283  and  _284
REMARK  108  A    between atoms: _287  and  _289
REMARK  109  A    between atoms: _289  and  _290
REMARK  110  A    between atoms: _293  and  _295
REMARK  111  A    between atoms: _295  and  _296
REMARK  112  A    between atoms: _295  and  _298
REMARK  113  A    between atoms: _298  and  _299
REMARK  114  A    between atoms: _309  and  _311
REMARK  115  A    between atoms: _311  and  _312
REMARK  116  A    between atoms: _311  and  _314
REMARK  117  A    between atoms: _314  and  _315
REMARK  118  A    between atoms: _317  and  _319
REMARK  119  A    between atoms: _319  and  _320
REMARK  120  A    between atoms: _319  and  _322
REMARK  121  A    between atoms: _322  and  _323
REMARK  122  A    between atoms: _328  and  _330
REMARK  123  A    between atoms: _330  and  _331
REMARK  124  A    between atoms: _330  and  _333
REMARK  125  A    between atoms: _333  and  _334
REMARK  126  A    between atoms: _340  and  _342
REMARK  127  A    between atoms: _342  and  _343
REMARK  128  A    between atoms: _342  and  _345
REMARK  129  A    between atoms: _345  and  _346
REMARK  130  A    between atoms: _346  and  _347
REMARK  131  A    between atoms: _350  and  _352
REMARK  132  A    between atoms: _352  and  _353
REMARK  133  A    between atoms: _352  and  _355
REMARK  134  A    between atoms: _355  and  _356
REMARK  135  A    between atoms: _366  and  _368
REMARK  136  A    between atoms: _368  and  _369
REMARK  137  A    between atoms: _368  and  _371
REMARK  138  A    between atoms: _371  and  _372
REMARK  139  A    between atoms: _372  and  _373
REMARK  140  A    between atoms: _376  and  _378
REMARK  141  A    between atoms: _378  and  _379
REMARK  142  A    between atoms: _378  and  _381
REMARK  143  A    between atoms: _381  and  _382
REMARK  144  A    between atoms: _382  and  _383
REMARK  145  A    between atoms: _383  and  _384
REMARK  146  A    between atoms: _384  and  _385
REMARK  147  A    between atoms: _389  and  _391
REMARK  148  A    between atoms: _391  and  _392
REMARK  149  A    between atoms: _391  and  _394
REMARK  150  A    between atoms: _394  and  _395
REMARK                            x       y       z     vdW  Elec       q    Type
REMARK                         _______ _______ _______ _____ _____    ______ ____
ROOT
ATOM      1  O   HOH     1       1.267   6.185   9.636  0.00  0.00    +0.000 OA
ENDROOT
TORSDOF 0
REMARK  Name = ../refined-set-2016/1oif/1oif_pocket.pdb
REMARK  150 active torsions:
REMARK  status: ('A' for Active; 'I' for Inactive)
REMARK    1  A    between atoms: _1  and  _3
REMARK    2  A    between atoms: _3  and  _4
REMARK    3  A    between atoms: _7  and  _9
REMARK    4  A    between atoms: _9  and  _10
REMARK    5  A    between atoms: _9  and  _12
REMARK    6  A    between atoms: _12  and  _13
REMARK    7  A    between atoms: _16  and  _18
REMARK    8  A    between atoms: _18  and  _19
REMARK    9  A    between atoms: _22  and  _24
REMARK   10  A    between atoms: _24  and  _25
REMARK   11  A    between atoms: _24  and  _27
REMARK   12  A    between atoms: _27  and  _28
REMARK   13  A    between atoms: _30  and  _32
REMARK   14  A    between atoms: _32  and  _33
REMARK   15  A    between atoms: _32  and  _35
REMARK   16  A    between atoms: _35  and  _36
REMARK   17  A    between atoms: _41  and  _42
REMARK   18  A    between atoms: _44  and  _46
REMARK   19  A    between atoms: _46  and  _47
REMARK   20  A    between atoms: _46  and  _49
REMARK   21  A    between atoms: _49  and  _50
REMARK   22  A    between atoms: _50  and  _51
REMARK   23  A    between atoms: _56  and  _58
REMARK   24  A    between atoms: _58  and  _59
REMARK   25  A    between atoms: _58  and  _61
REMARK   26  A    between atoms: _61  and  _62
REMARK   27  A    between atoms: _62  and  _63
REMARK   28  A    between atoms: _63  and  _64
REMARK   29  A    between atoms: _73  and  _75
REMARK   30  A    between atoms: _75  and  _76
REMARK   31  A    between atoms: _75  and  _78
REMARK   32  A    between atoms: _78  and  _79
REMARK   33  A    between atoms: _84  and  _86
REMARK   34  A    between atoms: _86  and  _87
REMARK   35  A    between atoms: _86  and  _89
REMARK   36  A    between atoms: _89  and  _90
REMARK   37  A    between atoms: _100  and  _102
REMARK   38  A    between atoms: _102  and  _103
REMARK   39  A    between atoms: _102  and  _105
REMARK   40  A    between atoms: _105  and  _106
REMARK   41  A    between atoms: _111  and  _113
REMARK   42  A    between atoms: _113  and  _114
REMARK   43  A    between atoms: _113  and  _116
REMARK   44  A    between atoms: _116  and  _117
REMARK   45  A    between atoms: _117  and  _118
REMARK   46  A    between atoms: _121  and  _123
REMARK   47  A    between atoms: _123  and  _124
REMARK   48  A    between atoms: _123  and  _126
REMARK   49  A    between atoms: _129  and  _131
REMARK   50  A    between atoms: _131  and  _132
REMARK   51  A    between atoms: _131  and  _134
REMARK   52  A    between atoms: _134  and  _135
REMARK   53  A    between atoms: _140  and  _142
REMARK   54  A    between atoms: _142  and  _143
REMARK   55  A    between atoms: _142  and  _145
REMARK   56  A    between atoms: _148  and  _150
REMARK   57  A    between atoms: _150  and  _151
REMARK   58  A    between atoms: _150  and  _153
REMARK   59  A    between atoms: _153  and  _154
REMARK   60  A    between atoms: _160  and  _162
REMARK   61  A    between atoms: _162  and  _163
REMARK   62  A    between atoms: _162  and  _165
REMARK   63  A    between atoms: _165  and  _166
REMARK   64  A    between atoms: _171  and  _173
REMARK   65  A    between atoms: _173  and  _174
REMARK   66  A    between atoms: _173  and  _176
REMARK   67  A    between atoms: _176  and  _177
REMARK   68  A    between atoms: _182  and  _184
REMARK   69  A    between atoms: _184  and  _185
REMARK   70  A    between atoms: _184  and  _187
REMARK   71  A    between atoms: _187  and  _188
REMARK   72  A    between atoms: _193  and  _195
REMARK   73  A    between atoms: _195  and  _196
REMARK   74  A    between atoms: _195  and  _198
REMARK   75  A    between atoms: _198  and  _199
REMARK   76  A    between atoms: _204  and  _205
REMARK   77  A    between atoms: _207  and  _209
REMARK   78  A    between atoms: _209  and  _210
REMARK   79  A    between atoms: _209  and  _212
REMARK   80  A    between atoms: _212  and  _213
REMARK   81  A    between atoms: _218  and  _219
REMARK   82  A    between atoms: _221  and  _223
REMARK   83  A    between atoms: _223  and  _224
REMARK   84  A    between atoms: _223  and  _226
REMARK   85  A    between atoms: _226  and  _227
REMARK   86  A    between atoms: _227  and  _228
REMARK   87  A    between atoms: _230  and  _232
REMARK   88  A    between atoms: _232  and  _233
REMARK   89  A    between atoms: _232  and  _235
REMARK   90  A    between atoms: _235  and  _236
REMARK   91  A    between atoms: _246  and  _248
REMARK   92  A    between atoms: _248  and  _249
REMARK   93  A    between atoms: _248  and  _251
REMARK   94  A    between atoms: _251  and  _252
REMARK   95  A    between atoms: _255  and  _257
REMARK   96  A    between atoms: _257  and  _258
REMARK   97  A    between atoms: _257  and  _260
REMARK   98  A    between atoms: _260  and  _261
REMARK   99  A    between atoms: _261  and  _262
REMARK  100  A    between atoms: _265  and  _267
REMARK  101  A    between atoms: _267  and  _268
REMARK  102  A    between atoms: _267  and  _270
REMARK  103  A    between atoms: _270  and  _271
REMARK  104  A    between atoms: _276  and  _278
REMARK  105  A    between atoms: _278  and  _279
REMARK  106  A    between atoms: _281  and  _283
REMARK  107  A    between atoms: _283  and  _284
REMARK  108  A    between atoms: _287  and  _289
REMARK  109  A    between atoms: _289  and  _290
REMARK  110  A    between atoms: _293  and  _295
REMARK  111  A    between atoms: _295  and  _296
REMARK  112  A    between atoms: _295  and  _298
REMARK  113  A    between atoms: _298  and  _299
REMARK  114  A    between atoms: _309  and  _311
REMARK  115  A    between atoms: _311  and  _312
REMARK  116  A    between atoms: _311  and  _314
REMARK  117  A    between atoms: _314  and  _315
REMARK  118  A    between atoms: _317  and  _319
REMARK  119  A    between atoms: _319  and  _320
REMARK  120  A    between atoms: _319  and  _322
REMARK  121  A    between atoms: _322  and  _323
REMARK  122  A    between atoms: _328  and  _330
REMARK  123  A    between atoms: _330  and  _331
REMARK  124  A    between atoms: _330  and  _333
REMARK  125  A    between atoms: _333  and  _334
REMARK  126  A    between atoms: _340  and  _342
REMARK  127  A    between atoms: _342  and  _343
REMARK  128  A    between atoms: _342  and  _345
REMARK  129  A    between atoms: _345  and  _346
REMARK  130  A    between atoms: _346  and  _347
REMARK  131  A    between atoms: _350  and  _352
REMARK  132  A    between atoms: _352  and  _353
REMARK  133  A    between atoms: _352  and  _355
REMARK  134  A    between atoms: _355  and  _356
REMARK  135  A    between atoms: _366  and  _368
REMARK  136  A    between atoms: _368  and  _369
REMARK  137  A    between atoms: _368  and  _371
REMARK  138  A    between atoms: _371  and  _372
REMARK  139  A    between atoms: _372  and  _373
REMARK  140  A    between atoms: _376  and  _378
REMARK  141  A    between atoms: _378  and  _379
REMARK  142  A    between atoms: _378  and  _381
REMARK  143  A    between atoms: _381  and  _382
REMARK  144  A    between atoms: _382  and  _383
REMARK  145  A    between atoms: _383  and  _384
REMARK  146  A    between atoms: _384  and  _385
REMARK  147  A    between atoms: _389  and  _391
REMARK  148  A    between atoms: _391  and  _392
REMARK  149  A    between atoms: _391  and  _394
REMARK  150  A    between atoms: _394  and  _395
REMARK                            x       y       z     vdW  Elec       q    Type
REMARK                         _______ _______ _______ _____ _____    ______ ____
ROOT
ATOM      1  O   HOH     1      -4.270   5.543  15.353  0.00  0.00    +0.000 OA
ENDROOT
TORSDOF 0
REMARK  Name = ../refined-set-2016/1oif/1oif_pocket.pdb
REMARK  150 active torsions:
REMARK  status: ('A' for Active; 'I' for Inactive)
REMARK    1  A    between atoms: _1  and  _3
REMARK    2  A    between atoms: _3  and  _4
REMARK    3  A    between atoms: _7  and  _9
REMARK    4  A    between atoms: _9  and  _10
REMARK    5  A    between atoms: _9  and  _12
REMARK    6  A    between atoms: _12  and  _13
REMARK    7  A    between atoms: _16  and  _18
REMARK    8  A    between atoms: _18  and  _19
REMARK    9  A    between atoms: _22  and  _24
REMARK   10  A    between atoms: _24  and  _25
REMARK   11  A    between atoms: _24  and  _27
REMARK   12  A    between atoms: _27  and  _28
REMARK   13  A    between atoms: _30  and  _32
REMARK   14  A    between atoms: _32  and  _33
REMARK   15  A    between atoms: _32  and  _35
REMARK   16  A    between atoms: _35  and  _36
REMARK   17  A    between atoms: _41  and  _42
REMARK   18  A    between atoms: _44  and  _46
REMARK   19  A    between atoms: _46  and  _47
REMARK   20  A    between atoms: _46  and  _49
REMARK   21  A    between atoms: _49  and  _50
REMARK   22  A    between atoms: _50  and  _51
REMARK   23  A    between atoms: _56  and  _58
REMARK   24  A    between atoms: _58  and  _59
REMARK   25  A    between atoms: _58  and  _61
REMARK   26  A    between atoms: _61  and  _62
REMARK   27  A    between atoms: _62  and  _63
REMARK   28  A    between atoms: _63  and  _64
REMARK   29  A    between atoms: _73  and  _75
REMARK   30  A    between atoms: _75  and  _76
REMARK   31  A    between atoms: _75  and  _78
REMARK   32  A    between atoms: _78  and  _79
REMARK   33  A    between atoms: _84  and  _86
REMARK   34  A    between atoms: _86  and  _87
REMARK   35  A    between atoms: _86  and  _89
REMARK   36  A    between atoms: _89  and  _90
REMARK   37  A    between atoms: _100  and  _102
REMARK   38  A    between atoms: _102  and  _103
REMARK   39  A    between atoms: _102  and  _105
REMARK   40  A    between atoms: _105  and  _106
REMARK   41  A    between atoms: _111  and  _113
REMARK   42  A    between atoms: _113  and  _114
REMARK   43  A    between atoms: _113  and  _116
REMARK   44  A    between atoms: _116  and  _117
REMARK   45  A    between atoms: _117  and  _118
REMARK   46  A    between atoms: _121  and  _123
REMARK   47  A    between atoms: _123  and  _124
REMARK   48  A    between atoms: _123  and  _126
REMARK   49  A    between atoms: _129  and  _131
REMARK   50  A    between atoms: _131  and  _132
REMARK   51  A    between atoms: _131  and  _134
REMARK   52  A    between atoms: _134  and  _135
REMARK   53  A    between atoms: _140  and  _142
REMARK   54  A    between atoms: _142  and  _143
REMARK   55  A    between atoms: _142  and  _145
REMARK   56  A    between atoms: _148  and  _150
REMARK   57  A    between atoms: _150  and  _151
REMARK   58  A    between atoms: _150  and  _153
REMARK   59  A    between atoms: _153  and  _154
REMARK   60  A    between atoms: _160  and  _162
REMARK   61  A    between atoms: _162  and  _163
REMARK   62  A    between atoms: _162  and  _165
REMARK   63  A    between atoms: _165  and  _166
REMARK   64  A    between atoms: _171  and  _173
REMARK   65  A    between atoms: _173  and  _174
REMARK   66  A    between atoms: _173  and  _176
REMARK   67  A    between atoms: _176  and  _177
REMARK   68  A    between atoms: _182  and  _184
REMARK   69  A    between atoms: _184  and  _185
REMARK   70  A    between atoms: _184  and  _187
REMARK   71  A    between atoms: _187  and  _188
REMARK   72  A    between atoms: _193  and  _195
REMARK   73  A    between atoms: _195  and  _196
REMARK   74  A    between atoms: _195  and  _198
REMARK   75  A    between atoms: _198  and  _199
REMARK   76  A    between atoms: _204  and  _205
REMARK   77  A    between atoms: _207  and  _209
REMARK   78  A    between atoms: _209  and  _210
REMARK   79  A    between atoms: _209  and  _212
REMARK   80  A    between atoms: _212  and  _213
REMARK   81  A    between atoms: _218  and  _219
REMARK   82  A    between atoms: _221  and  _223
REMARK   83  A    between atoms: _223  and  _224
REMARK   84  A    between atoms: _223  and  _226
REMARK   85  A    between atoms: _226  and  _227
REMARK   86  A    between atoms: _227  and  _228
REMARK   87  A    between atoms: _230  and  _232
REMARK   88  A    between atoms: _232  and  _233
REMARK   89  A    between atoms: _232  and  _235
REMARK   90  A    between atoms: _235  and  _236
REMARK   91  A    between atoms: _246  and  _248
REMARK   92  A    between atoms: _248  and  _249
REMARK   93  A    between atoms: _248  and  _251
REMARK   94  A    between atoms: _251  and  _252
REMARK   95  A    between atoms: _255  and  _257
REMARK   96  A    between atoms: _257  and  _258
REMARK   97  A    between atoms: _257  and  _260
REMARK   98  A    between atoms: _260  and  _261
REMARK   99  A    between atoms: _261  and  _262
REMARK  100  A    between atoms: _265  and  _267
REMARK  101  A    between atoms: _267  and  _268
REMARK  102  A    between atoms: _267  and  _270
REMARK  103  A    between atoms: _270  and  _271
REMARK  104  A    between atoms: _276  and  _278
REMARK  105  A    between atoms: _278  and  _279
REMARK  106  A    between atoms: _281  and  _283
REMARK  107  A    between atoms: _283  and  _284
REMARK  108  A    between atoms: _287  and  _289
REMARK  109  A    between atoms: _289  and  _290
REMARK  110  A    between atoms: _293  and  _295
REMARK  111  A    between atoms: _295  and  _296
REMARK  112  A    between atoms: _295  and  _298
REMARK  113  A    between atoms: _298  and  _299
REMARK  114  A    between atoms: _309  and  _311
REMARK  115  A    between atoms: _311  and  _312
REMARK  116  A    between atoms: _311  and  _314
REMARK  117  A    between atoms: _314  and  _315
REMARK  118  A    between atoms: _317  and  _319
REMARK  119  A    between atoms: _319  and  _320
REMARK  120  A    between atoms: _319  and  _322
REMARK  121  A    between atoms: _322  and  _323
REMARK  122  A    between atoms: _328  and  _330
REMARK  123  A    between atoms: _330  and  _331
REMARK  124  A    between atoms: _330  and  _333
REMARK  125  A    between atoms: _333  and  _334
REMARK  126  A    between atoms: _340  and  _342
REMARK  127  A    between atoms: _342  and  _343
REMARK  128  A    between atoms: _342  and  _345
REMARK  129  A    between atoms: _345  and  _346
REMARK  130  A    between atoms: _346  and  _347
REMARK  131  A    between atoms: _350  and  _352
REMARK  132  A    between atoms: _352  and  _353
REMARK  133  A    between atoms: _352  and  _355
REMARK  134  A    between atoms: _355  and  _356
REMARK  135  A    between atoms: _366  and  _368
REMARK  136  A    between atoms: _368  and  _369
REMARK  137  A    between atoms: _368  and  _371
REMARK  138  A    between atoms: _371  and  _372
REMARK  139  A    between atoms: _372  and  _373
REMARK  140  A    between atoms: _376  and  _378
REMARK  141  A    between atoms: _378  and  _379
REMARK  142  A    between atoms: _378  and  _381
REMARK  143  A    between atoms: _381  and  _382
REMARK  144  A    between atoms: _382  and  _383
REMARK  145  A    between atoms: _383  and  _384
REMARK  146  A    between atoms: _384  and  _385
REMARK  147  A    between atoms: _389  and  _391
REMARK  148  A    between atoms: _391  and  _392
REMARK  149  A    between atoms: _391  and  _394
REMARK  150  A    between atoms: _394  and  _395
REMARK                            x       y       z     vdW  Elec       q    Type
REMARK                         _______ _______ _______ _____ _____    ______ ____
ROOT
ATOM      1  O   HOH     1       2.266  19.079   8.189  0.00  0.00    +0.000 OA
ENDROOT
TORSDOF 0
REMARK  Name = ../refined-set-2016/1oif/1oif_pocket.pdb
REMARK  150 active torsions:
REMARK  status: ('A' for Active; 'I' for Inactive)
REMARK    1  A    between atoms: _1  and  _3
REMARK    2  A    between atoms: _3  and  _4
REMARK    3  A    between atoms: _7  and  _9
REMARK    4  A    between atoms: _9  and  _10
REMARK    5  A    between atoms: _9  and  _12
REMARK    6  A    between atoms: _12  and  _13
REMARK    7  A    between atoms: _16  and  _18
REMARK    8  A    between atoms: _18  and  _19
REMARK    9  A    between atoms: _22  and  _24
REMARK   10  A    between atoms: _24  and  _25
REMARK   11  A    between atoms: _24  and  _27
REMARK   12  A    between atoms: _27  and  _28
REMARK   13  A    between atoms: _30  and  _32
REMARK   14  A    between atoms: _32  and  _33
REMARK   15  A    between atoms: _32  and  _35
REMARK   16  A    between atoms: _35  and  _36
REMARK   17  A    between atoms: _41  and  _42
REMARK   18  A    between atoms: _44  and  _46
REMARK   19  A    between atoms: _46  and  _47
REMARK   20  A    between atoms: _46  and  _49
REMARK   21  A    between atoms: _49  and  _50
REMARK   22  A    between atoms: _50  and  _51
REMARK   23  A    between atoms: _56  and  _58
REMARK   24  A    between atoms: _58  and  _59
REMARK   25  A    between atoms: _58  and  _61
REMARK   26  A    between atoms: _61  and  _62
REMARK   27  A    between atoms: _62  and  _63
REMARK   28  A    between atoms: _63  and  _64
REMARK   29  A    between atoms: _73  and  _75
REMARK   30  A    between atoms: _75  and  _76
REMARK   31  A    between atoms: _75  and  _78
REMARK   32  A    between atoms: _78  and  _79
REMARK   33  A    between atoms: _84  and  _86
REMARK   34  A    between atoms: _86  and  _87
REMARK   35  A    between atoms: _86  and  _89
REMARK   36  A    between atoms: _89  and  _90
REMARK   37  A    between atoms: _100  and  _102
REMARK   38  A    between atoms: _102  and  _103
REMARK   39  A    between atoms: _102  and  _105
REMARK   40  A    between atoms: _105  and  _106
REMARK   41  A    between atoms: _111  and  _113
REMARK   42  A    between atoms: _113  and  _114
REMARK   43  A    between atoms: _113  and  _116
REMARK   44  A    between atoms: _116  and  _117
REMARK   45  A    between atoms: _117  and  _118
REMARK   46  A    between atoms: _121  and  _123
REMARK   47  A    between atoms: _123  and  _124
REMARK   48  A    between atoms: _123  and  _126
REMARK   49  A    between atoms: _129  and  _131
REMARK   50  A    between atoms: _131  and  _132
REMARK   51  A    between atoms: _131  and  _134
REMARK   52  A    between atoms: _134  and  _135
REMARK   53  A    between atoms: _140  and  _142
REMARK   54  A    between atoms: _142  and  _143
REMARK   55  A    between atoms: _142  and  _145
REMARK   56  A    between atoms: _148  and  _150
REMARK   57  A    between atoms: _150  and  _151
REMARK   58  A    between atoms: _150  and  _153
REMARK   59  A    between atoms: _153  and  _154
REMARK   60  A    between atoms: _160  and  _162
REMARK   61  A    between atoms: _162  and  _163
REMARK   62  A    between atoms: _162  and  _165
REMARK   63  A    between atoms: _165  and  _166
REMARK   64  A    between atoms: _171  and  _173
REMARK   65  A    between atoms: _173  and  _174
REMARK   66  A    between atoms: _173  and  _176
REMARK   67  A    between atoms: _176  and  _177
REMARK   68  A    between atoms: _182  and  _184
REMARK   69  A    between atoms: _184  and  _185
REMARK   70  A    between atoms: _184  and  _187
REMARK   71  A    between atoms: _187  and  _188
REMARK   72  A    between atoms: _193  and  _195
REMARK   73  A    between atoms: _195  and  _196
REMARK   74  A    between atoms: _195  and  _198
REMARK   75  A    between atoms: _198  and  _199
REMARK   76  A    between atoms: _204  and  _205
REMARK   77  A    between atoms: _207  and  _209
REMARK   78  A    between atoms: _209  and  _210
REMARK   79  A    between atoms: _209  and  _212
REMARK   80  A    between atoms: _212  and  _213
REMARK   81  A    between atoms: _218  and  _219
REMARK   82  A    between atoms: _221  and  _223
REMARK   83  A    between atoms: _223  and  _224
REMARK   84  A    between atoms: _223  and  _226
REMARK   85  A    between atoms: _226  and  _227
REMARK   86  A    between atoms: _227  and  _228
REMARK   87  A    between atoms: _230  and  _232
REMARK   88  A    between atoms: _232  and  _233
REMARK   89  A    between atoms: _232  and  _235
REMARK   90  A    between atoms: _235  and  _236
REMARK   91  A    between atoms: _246  and  _248
REMARK   92  A    between atoms: _248  and  _249
REMARK   93  A    between atoms: _248  and  _251
REMARK   94  A    between atoms: _251  and  _252
REMARK   95  A    between atoms: _255  and  _257
REMARK   96  A    between atoms: _257  and  _258
REMARK   97  A    between atoms: _257  and  _260
REMARK   98  A    between atoms: _260  and  _261
REMARK   99  A    between atoms: _261  and  _262
REMARK  100  A    between atoms: _265  and  _267
REMARK  101  A    between atoms: _267  and  _268
REMARK  102  A    between atoms: _267  and  _270
REMARK  103  A    between atoms: _270  and  _271
REMARK  104  A    between atoms: _276  and  _278
REMARK  105  A    between atoms: _278  and  _279
REMARK  106  A    between atoms: _281  and  _283
REMARK  107  A    between atoms: _283  and  _284
REMARK  108  A    between atoms: _287  and  _289
REMARK  109  A    between atoms: _289  and  _290
REMARK  110  A    between atoms: _293  and  _295
REMARK  111  A    between atoms: _295  and  _296
REMARK  112  A    between atoms: _295  and  _298
REMARK  113  A    between atoms: _298  and  _299
REMARK  114  A    between atoms: _309  and  _311
REMARK  115  A    between atoms: _311  and  _312
REMARK  116  A    between atoms: _311  and  _314
REMARK  117  A    between atoms: _314  and  _315
REMARK  118  A    between atoms: _317  and  _319
REMARK  119  A    between atoms: _319  and  _320
REMARK  120  A    between atoms: _319  and  _322
REMARK  121  A    between atoms: _322  and  _323
REMARK  122  A    between atoms: _328  and  _330
REMARK  123  A    between atoms: _330  and  _331
REMARK  124  A    between atoms: _330  and  _333
REMARK  125  A    between atoms: _333  and  _334
REMARK  126  A    between atoms: _340  and  _342
REMARK  127  A    between atoms: _342  and  _343
REMARK  128  A    between atoms: _342  and  _345
REMARK  129  A    between atoms: _345  and  _346
REMARK  130  A    between atoms: _346  and  _347
REMARK  131  A    between atoms: _350  and  _352
REMARK  132  A    between atoms: _352  and  _353
REMARK  133  A    between atoms: _352  and  _355
REMARK  134  A    between atoms: _355  and  _356
REMARK  135  A    between atoms: _366  and  _368
REMARK  136  A    between atoms: _368  and  _369
REMARK  137  A    between atoms: _368  and  _371
REMARK  138  A    between atoms: _371  and  _372
REMARK  139  A    between atoms: _372  and  _373
REMARK  140  A    between atoms: _376  and  _378
REMARK  141  A    between atoms: _378  and  _379
REMARK  142  A    between atoms: _378  and  _381
REMARK  143  A    between atoms: _381  and  _382
REMARK  144  A    between atoms: _382  and  _383
REMARK  145  A    between atoms: _383  and  _384
REMARK  146  A    between atoms: _384  and  _385
REMARK  147  A    between atoms: _389  and  _391
REMARK  148  A    between atoms: _391  and  _392
REMARK  149  A    between atoms: _391  and  _394
REMARK  150  A    between atoms: _394  and  _395
REMARK                            x       y       z     vdW  Elec       q    Type
REMARK                         _______ _______ _______ _____ _____    ______ ____
ROOT
ATOM      1  O   HOH     1       6.270  15.297   3.749  0.00  0.00    +0.000 OA
ENDROOT
TORSDOF 0
REMARK  Name = ../refined-set-2016/1oif/1oif_pocket.pdb
REMARK  150 active torsions:
REMARK  status: ('A' for Active; 'I' for Inactive)
REMARK    1  A    between atoms: _1  and  _3
REMARK    2  A    between atoms: _3  and  _4
REMARK    3  A    between atoms: _7  and  _9
REMARK    4  A    between atoms: _9  and  _10
REMARK    5  A    between atoms: _9  and  _12
REMARK    6  A    between atoms: _12  and  _13
REMARK    7  A    between atoms: _16  and  _18
REMARK    8  A    between atoms: _18  and  _19
REMARK    9  A    between atoms: _22  and  _24
REMARK   10  A    between atoms: _24  and  _25
REMARK   11  A    between atoms: _24  and  _27
REMARK   12  A    between atoms: _27  and  _28
REMARK   13  A    between atoms: _30  and  _32
REMARK   14  A    between atoms: _32  and  _33
REMARK   15  A    between atoms: _32  and  _35
REMARK   16  A    between atoms: _35  and  _36
REMARK   17  A    between atoms: _41  and  _42
REMARK   18  A    between atoms: _44  and  _46
REMARK   19  A    between atoms: _46  and  _47
REMARK   20  A    between atoms: _46  and  _49
REMARK   21  A    between atoms: _49  and  _50
REMARK   22  A    between atoms: _50  and  _51
REMARK   23  A    between atoms: _56  and  _58
REMARK   24  A    between atoms: _58  and  _59
REMARK   25  A    between atoms: _58  and  _61
REMARK   26  A    between atoms: _61  and  _62
REMARK   27  A    between atoms: _62  and  _63
REMARK   28  A    between atoms: _63  and  _64
REMARK   29  A    between atoms: _73  and  _75
REMARK   30  A    between atoms: _75  and  _76
REMARK   31  A    between atoms: _75  and  _78
REMARK   32  A    between atoms: _78  and  _79
REMARK   33  A    between atoms: _84  and  _86
REMARK   34  A    between atoms: _86  and  _87
REMARK   35  A    between atoms: _86  and  _89
REMARK   36  A    between atoms: _89  and  _90
REMARK   37  A    between atoms: _100  and  _102
REMARK   38  A    between atoms: _102  and  _103
REMARK   39  A    between atoms: _102  and  _105
REMARK   40  A    between atoms: _105  and  _106
REMARK   41  A    between atoms: _111  and  _113
REMARK   42  A    between atoms: _113  and  _114
REMARK   43  A    between atoms: _113  and  _116
REMARK   44  A    between atoms: _116  and  _117
REMARK   45  A    between atoms: _117  and  _118
REMARK   46  A    between atoms: _121  and  _123
REMARK   47  A    between atoms: _123  and  _124
REMARK   48  A    between atoms: _123  and  _126
REMARK   49  A    between atoms: _129  and  _131
REMARK   50  A    between atoms: _131  and  _132
REMARK   51  A    between atoms: _131  and  _134
REMARK   52  A    between atoms: _134  and  _135
REMARK   53  A    between atoms: _140  and  _142
REMARK   54  A    between atoms: _142  and  _143
REMARK   55  A    between atoms: _142  and  _145
REMARK   56  A    between atoms: _148  and  _150
REMARK   57  A    between atoms: _150  and  _151
REMARK   58  A    between atoms: _150  and  _153
REMARK   59  A    between atoms: _153  and  _154
REMARK   60  A    between atoms: _160  and  _162
REMARK   61  A    between atoms: _162  and  _163
REMARK   62  A    between atoms: _162  and  _165
REMARK   63  A    between atoms: _165  and  _166
REMARK   64  A    between atoms: _171  and  _173
REMARK   65  A    between atoms: _173  and  _174
REMARK   66  A    between atoms: _173  and  _176
REMARK   67  A    between atoms: _176  and  _177
REMARK   68  A    between atoms: _182  and  _184
REMARK   69  A    between atoms: _184  and  _185
REMARK   70  A    between atoms: _184  and  _187
REMARK   71  A    between atoms: _187  and  _188
REMARK   72  A    between atoms: _193  and  _195
REMARK   73  A    between atoms: _195  and  _196
REMARK   74  A    between atoms: _195  and  _198
REMARK   75  A    between atoms: _198  and  _199
REMARK   76  A    between atoms: _204  and  _205
REMARK   77  A    between atoms: _207  and  _209
REMARK   78  A    between atoms: _209  and  _210
REMARK   79  A    between atoms: _209  and  _212
REMARK   80  A    between atoms: _212  and  _213
REMARK   81  A    between atoms: _218  and  _219
REMARK   82  A    between atoms: _221  and  _223
REMARK   83  A    between atoms: _223  and  _224
REMARK   84  A    between atoms: _223  and  _226
REMARK   85  A    between atoms: _226  and  _227
REMARK   86  A    between atoms: _227  and  _228
REMARK   87  A    between atoms: _230  and  _232
REMARK   88  A    between atoms: _232  and  _233
REMARK   89  A    between atoms: _232  and  _235
REMARK   90  A    between atoms: _235  and  _236
REMARK   91  A    between atoms: _246  and  _248
REMARK   92  A    between atoms: _248  and  _249
REMARK   93  A    between atoms: _248  and  _251
REMARK   94  A    between atoms: _251  and  _252
REMARK   95  A    between atoms: _255  and  _257
REMARK   96  A    between atoms: _257  and  _258
REMARK   97  A    between atoms: _257  and  _260
REMARK   98  A    between atoms: _260  and  _261
REMARK   99  A    between atoms: _261  and  _262
REMARK  100  A    between atoms: _265  and  _267
REMARK  101  A    between atoms: _267  and  _268
REMARK  102  A    between atoms: _267  and  _270
REMARK  103  A    between atoms: _270  and  _271
REMARK  104  A    between atoms: _276  and  _278
REMARK  105  A    between atoms: _278  and  _279
REMARK  106  A    between atoms: _281  and  _283
REMARK  107  A    between atoms: _283  and  _284
REMARK  108  A    between atoms: _287  and  _289
REMARK  109  A    between atoms: _289  and  _290
REMARK  110  A    between atoms: _293  and  _295
REMARK  111  A    between atoms: _295  and  _296
REMARK  112  A    between atoms: _295  and  _298
REMARK  113  A    between atoms: _298  and  _299
REMARK  114  A    between atoms: _309  and  _311
REMARK  115  A    between atoms: _311  and  _312
REMARK  116  A    between atoms: _311  and  _314
REMARK  117  A    between atoms: _314  and  _315
REMARK  118  A    between atoms: _317  and  _319
REMARK  119  A    between atoms: _319  and  _320
REMARK  120  A    between atoms: _319  and  _322
REMARK  121  A    between atoms: _322  and  _323
REMARK  122  A    between atoms: _328  and  _330
REMARK  123  A    between atoms: _330  and  _331
REMARK  124  A    between atoms: _330  and  _333
REMARK  125  A    between atoms: _333  and  _334
REMARK  126  A    between atoms: _340  and  _342
REMARK  127  A    between atoms: _342  and  _343
REMARK  128  A    between atoms: _342  and  _345
REMARK  129  A    between atoms: _345  and  _346
REMARK  130  A    between atoms: _346  and  _347
REMARK  131  A    between atoms: _350  and  _352
REMARK  132  A    between atoms: _352  and  _353
REMARK  133  A    between atoms: _352  and  _355
REMARK  134  A    between atoms: _355  and  _356
REMARK  135  A    between atoms: _366  and  _368
REMARK  136  A    between atoms: _368  and  _369
REMARK  137  A    between atoms: _368  and  _371
REMARK  138  A    between atoms: _371  and  _372
REMARK  139  A    between atoms: _372  and  _373
REMARK  140  A    between atoms: _376  and  _378
REMARK  141  A    between atoms: _378  and  _379
REMARK  142  A    between atoms: _378  and  _381
REMARK  143  A    between atoms: _381  and  _382
REMARK  144  A    between atoms: _382  and  _383
REMARK  145  A    between atoms: _383  and  _384
REMARK  146  A    between atoms: _384  and  _385
REMARK  147  A    between atoms: _389  and  _391
REMARK  148  A    between atoms: _391  and  _392
REMARK  149  A    between atoms: _391  and  _394
REMARK  150  A    between atoms: _394  and  _395
REMARK                            x       y       z     vdW  Elec       q    Type
REMARK                         _______ _______ _______ _____ _____    ______ ____
ROOT
ATOM      1  O   HOH     1       1.078   8.459  11.907  0.00  0.00    +0.000 OA
ENDROOT
TORSDOF 0
REMARK  Name = ../refined-set-2016/1oif/1oif_pocket.pdb
REMARK  150 active torsions:
REMARK  status: ('A' for Active; 'I' for Inactive)
REMARK    1  A    between atoms: _1  and  _3
REMARK    2  A    between atoms: _3  and  _4
REMARK    3  A    between atoms: _7  and  _9
REMARK    4  A    between atoms: _9  and  _10
REMARK    5  A    between atoms: _9  and  _12
REMARK    6  A    between atoms: _12  and  _13
REMARK    7  A    between atoms: _16  and  _18
REMARK    8  A    between atoms: _18  and  _19
REMARK    9  A    between atoms: _22  and  _24
REMARK   10  A    between atoms: _24  and  _25
REMARK   11  A    between atoms: _24  and  _27
REMARK   12  A    between atoms: _27  and  _28
REMARK   13  A    between atoms: _30  and  _32
REMARK   14  A    between atoms: _32  and  _33
REMARK   15  A    between atoms: _32  and  _35
REMARK   16  A    between atoms: _35  and  _36
REMARK   17  A    between atoms: _41  and  _42
REMARK   18  A    between atoms: _44  and  _46
REMARK   19  A    between atoms: _46  and  _47
REMARK   20  A    between atoms: _46  and  _49
REMARK   21  A    between atoms: _49  and  _50
REMARK   22  A    between atoms: _50  and  _51
REMARK   23  A    between atoms: _56  and  _58
REMARK   24  A    between atoms: _58  and  _59
REMARK   25  A    between atoms: _58  and  _61
REMARK   26  A    between atoms: _61  and  _62
REMARK   27  A    between atoms: _62  and  _63
REMARK   28  A    between atoms: _63  and  _64
REMARK   29  A    between atoms: _73  and  _75
REMARK   30  A    between atoms: _75  and  _76
REMARK   31  A    between atoms: _75  and  _78
REMARK   32  A    between atoms: _78  and  _79
REMARK   33  A    between atoms: _84  and  _86
REMARK   34  A    between atoms: _86  and  _87
REMARK   35  A    between atoms: _86  and  _89
REMARK   36  A    between atoms: _89  and  _90
REMARK   37  A    between atoms: _100  and  _102
REMARK   38  A    between atoms: _102  and  _103
REMARK   39  A    between atoms: _102  and  _105
REMARK   40  A    between atoms: _105  and  _106
REMARK   41  A    between atoms: _111  and  _113
REMARK   42  A    between atoms: _113  and  _114
REMARK   43  A    between atoms: _113  and  _116
REMARK   44  A    between atoms: _116  and  _117
REMARK   45  A    between atoms: _117  and  _118
REMARK   46  A    between atoms: _121  and  _123
REMARK   47  A    between atoms: _123  and  _124
REMARK   48  A    between atoms: _123  and  _126
REMARK   49  A    between atoms: _129  and  _131
REMARK   50  A    between atoms: _131  and  _132
REMARK   51  A    between atoms: _131  and  _134
REMARK   52  A    between atoms: _134  and  _135
REMARK   53  A    between atoms: _140  and  _142
REMARK   54  A    between atoms: _142  and  _143
REMARK   55  A    between atoms: _142  and  _145
REMARK   56  A    between atoms: _148  and  _150
REMARK   57  A    between atoms: _150  and  _151
REMARK   58  A    between atoms: _150  and  _153
REMARK   59  A    between atoms: _153  and  _154
REMARK   60  A    between atoms: _160  and  _162
REMARK   61  A    between atoms: _162  and  _163
REMARK   62  A    between atoms: _162  and  _165
REMARK   63  A    between atoms: _165  and  _166
REMARK   64  A    between atoms: _171  and  _173
REMARK   65  A    between atoms: _173  and  _174
REMARK   66  A    between atoms: _173  and  _176
REMARK   67  A    between atoms: _176  and  _177
REMARK   68  A    between atoms: _182  and  _184
REMARK   69  A    between atoms: _184  and  _185
REMARK   70  A    between atoms: _184  and  _187
REMARK   71  A    between atoms: _187  and  _188
REMARK   72  A    between atoms: _193  and  _195
REMARK   73  A    between atoms: _195  and  _196
REMARK   74  A    between atoms: _195  and  _198
REMARK   75  A    between atoms: _198  and  _199
REMARK   76  A    between atoms: _204  and  _205
REMARK   77  A    between atoms: _207  and  _209
REMARK   78  A    between atoms: _209  and  _210
REMARK   79  A    between atoms: _209  and  _212
REMARK   80  A    between atoms: _212  and  _213
REMARK   81  A    between atoms: _218  and  _219
REMARK   82  A    between atoms: _221  and  _223
REMARK   83  A    between atoms: _223  and  _224
REMARK   84  A    between atoms: _223  and  _226
REMARK   85  A    between atoms: _226  and  _227
REMARK   86  A    between atoms: _227  and  _228
REMARK   87  A    between atoms: _230  and  _232
REMARK   88  A    between atoms: _232  and  _233
REMARK   89  A    between atoms: _232  and  _235
REMARK   90  A    between atoms: _235  and  _236
REMARK   91  A    between atoms: _246  and  _248
REMARK   92  A    between atoms: _248  and  _249
REMARK   93  A    between atoms: _248  and  _251
REMARK   94  A    between atoms: _251  and  _252
REMARK   95  A    between atoms: _255  and  _257
REMARK   96  A    between atoms: _257  and  _258
REMARK   97  A    between atoms: _257  and  _260
REMARK   98  A    between atoms: _260  and  _261
REMARK   99  A    between atoms: _261  and  _262
REMARK  100  A    between atoms: _265  and  _267
REMARK  101  A    between atoms: _267  and  _268
REMARK  102  A    between atoms: _267  and  _270
REMARK  103  A    between atoms: _270  and  _271
REMARK  104  A    between atoms: _276  and  _278
REMARK  105  A    between atoms: _278  and  _279
REMARK  106  A    between atoms: _281  and  _283
REMARK  107  A    between atoms: _283  and  _284
REMARK  108  A    between atoms: _287  and  _289
REMARK  109  A    between atoms: _289  and  _290
REMARK  110  A    between atoms: _293  and  _295
REMARK  111  A    between atoms: _295  and  _296
REMARK  112  A    between atoms: _295  and  _298
REMARK  113  A    between atoms: _298  and  _299
REMARK  114  A    between atoms: _309  and  _311
REMARK  115  A    between atoms: _311  and  _312
REMARK  116  A    between atoms: _311  and  _314
REMARK  117  A    between atoms: _314  and  _315
REMARK  118  A    between atoms: _317  and  _319
REMARK  119  A    between atoms: _319  and  _320
REMARK  120  A    between atoms: _319  and  _322
REMARK  121  A    between atoms: _322  and  _323
REMARK  122  A    between atoms: _328  and  _330
REMARK  123  A    between atoms: _330  and  _331
REMARK  124  A    between atoms: _330  and  _333
REMARK  125  A    between atoms: _333  and  _334
REMARK  126  A    between atoms: _340  and  _342
REMARK  127  A    between atoms: _342  and  _343
REMARK  128  A    between atoms: _342  and  _345
REMARK  129  A    between atoms: _345  and  _346
REMARK  130  A    between atoms: _346  and  _347
REMARK  131  A    between atoms: _350  and  _352
REMARK  132  A    between atoms: _352  and  _353
REMARK  133  A    between atoms: _352  and  _355
REMARK  134  A    between atoms: _355  and  _356
REMARK  135  A    between atoms: _366  and  _368
REMARK  136  A    between atoms: _368  and  _369
REMARK  137  A    between atoms: _368  and  _371
REMARK  138  A    between atoms: _371  and  _372
REMARK  139  A    between atoms: _372  and  _373
REMARK  140  A    between atoms: _376  and  _378
REMARK  141  A    between atoms: _378  and  _379
REMARK  142  A    between atoms: _378  and  _381
REMARK  143  A    between atoms: _381  and  _382
REMARK  144  A    between atoms: _382  and  _383
REMARK  145  A    between atoms: _383  and  _384
REMARK  146  A    between atoms: _384  and  _385
REMARK  147  A    between atoms: _389  and  _391
REMARK  148  A    between atoms: _391  and  _392
REMARK  149  A    between atoms: _391  and  _394
REMARK  150  A    between atoms: _394  and  _395
REMARK                            x       y       z     vdW  Elec       q    Type
REMARK                         _______ _______ _______ _____ _____    ______ ____
ROOT
ATOM      1  O   HOH     1      -1.356   9.808  13.768  0.00  0.00    +0.000 OA
ENDROOT
TORSDOF 0
REMARK  Name = ../refined-set-2016/1oif/1oif_pocket.pdb
REMARK  150 active torsions:
REMARK  status: ('A' for Active; 'I' for Inactive)
REMARK    1  A    between atoms: _1  and  _3
REMARK    2  A    between atoms: _3  and  _4
REMARK    3  A    between atoms: _7  and  _9
REMARK    4  A    between atoms: _9  and  _10
REMARK    5  A    between atoms: _9  and  _12
REMARK    6  A    between atoms: _12  and  _13
REMARK    7  A    between atoms: _16  and  _18
REMARK    8  A    between atoms: _18  and  _19
REMARK    9  A    between atoms: _22  and  _24
REMARK   10  A    between atoms: _24  and  _25
REMARK   11  A    between atoms: _24  and  _27
REMARK   12  A    between atoms: _27  and  _28
REMARK   13  A    between atoms: _30  and  _32
REMARK   14  A    between atoms: _32  and  _33
REMARK   15  A    between atoms: _32  and  _35
REMARK   16  A    between atoms: _35  and  _36
REMARK   17  A    between atoms: _41  and  _42
REMARK   18  A    between atoms: _44  and  _46
REMARK   19  A    between atoms: _46  and  _47
REMARK   20  A    between atoms: _46  and  _49
REMARK   21  A    between atoms: _49  and  _50
REMARK   22  A    between atoms: _50  and  _51
REMARK   23  A    between atoms: _56  and  _58
REMARK   24  A    between atoms: _58  and  _59
REMARK   25  A    between atoms: _58  and  _61
REMARK   26  A    between atoms: _61  and  _62
REMARK   27  A    between atoms: _62  and  _63
REMARK   28  A    between atoms: _63  and  _64
REMARK   29  A    between atoms: _73  and  _75
REMARK   30  A    between atoms: _75  and  _76
REMARK   31  A    between atoms: _75  and  _78
REMARK   32  A    between atoms: _78  and  _79
REMARK   33  A    between atoms: _84  and  _86
REMARK   34  A    between atoms: _86  and  _87
REMARK   35  A    between atoms: _86  and  _89
REMARK   36  A    between atoms: _89  and  _90
REMARK   37  A    between atoms: _100  and  _102
REMARK   38  A    between atoms: _102  and  _103
REMARK   39  A    between atoms: _102  and  _105
REMARK   40  A    between atoms: _105  and  _106
REMARK   41  A    between atoms: _111  and  _113
REMARK   42  A    between atoms: _113  and  _114
REMARK   43  A    between atoms: _113  and  _116
REMARK   44  A    between atoms: _116  and  _117
REMARK   45  A    between atoms: _117  and  _118
REMARK   46  A    between atoms: _121  and  _123
REMARK   47  A    between atoms: _123  and  _124
REMARK   48  A    between atoms: _123  and  _126
REMARK   49  A    between atoms: _129  and  _131
REMARK   50  A    between atoms: _131  and  _132
REMARK   51  A    between atoms: _131  and  _134
REMARK   52  A    between atoms: _134  and  _135
REMARK   53  A    between atoms: _140  and  _142
REMARK   54  A    between atoms: _142  and  _143
REMARK   55  A    between atoms: _142  and  _145
REMARK   56  A    between atoms: _148  and  _150
REMARK   57  A    between atoms: _150  and  _151
REMARK   58  A    between atoms: _150  and  _153
REMARK   59  A    between atoms: _153  and  _154
REMARK   60  A    between atoms: _160  and  _162
REMARK   61  A    between atoms: _162  and  _163
REMARK   62  A    between atoms: _162  and  _165
REMARK   63  A    between atoms: _165  and  _166
REMARK   64  A    between atoms: _171  and  _173
REMARK   65  A    between atoms: _173  and  _174
REMARK   66  A    between atoms: _173  and  _176
REMARK   67  A    between atoms: _176  and  _177
REMARK   68  A    between atoms: _182  and  _184
REMARK   69  A    between atoms: _184  and  _185
REMARK   70  A    between atoms: _184  and  _187
REMARK   71  A    between atoms: _187  and  _188
REMARK   72  A    between atoms: _193  and  _195
REMARK   73  A    between atoms: _195  and  _196
REMARK   74  A    between atoms: _195  and  _198
REMARK   75  A    between atoms: _198  and  _199
REMARK   76  A    between atoms: _204  and  _205
REMARK   77  A    between atoms: _207  and  _209
REMARK   78  A    between atoms: _209  and  _210
REMARK   79  A    between atoms: _209  and  _212
REMARK   80  A    between atoms: _212  and  _213
REMARK   81  A    between atoms: _218  and  _219
REMARK   82  A    between atoms: _221  and  _223
REMARK   83  A    between atoms: _223  and  _224
REMARK   84  A    between atoms: _223  and  _226
REMARK   85  A    between atoms: _226  and  _227
REMARK   86  A    between atoms: _227  and  _228
REMARK   87  A    between atoms: _230  and  _232
REMARK   88  A    between atoms: _232  and  _233
REMARK   89  A    between atoms: _232  and  _235
REMARK   90  A    between atoms: _235  and  _236
REMARK   91  A    between atoms: _246  and  _248
REMARK   92  A    between atoms: _248  and  _249
REMARK   93  A    between atoms: _248  and  _251
REMARK   94  A    between atoms: _251  and  _252
REMARK   95  A    between atoms: _255  and  _257
REMARK   96  A    between atoms: _257  and  _258
REMARK   97  A    between atoms: _257  and  _260
REMARK   98  A    between atoms: _260  and  _261
REMARK   99  A    between atoms: _261  and  _262
REMARK  100  A    between atoms: _265  and  _267
REMARK  101  A    between atoms: _267  and  _268
REMARK  102  A    between atoms: _267  and  _270
REMARK  103  A    between atoms: _270  and  _271
REMARK  104  A    between atoms: _276  and  _278
REMARK  105  A    between atoms: _278  and  _279
REMARK  106  A    between atoms: _281  and  _283
REMARK  107  A    between atoms: _283  and  _284
REMARK  108  A    between atoms: _287  and  _289
REMARK  109  A    between atoms: _289  and  _290
REMARK  110  A    between atoms: _293  and  _295
REMARK  111  A    between atoms: _295  and  _296
REMARK  112  A    between atoms: _295  and  _298
REMARK  113  A    between atoms: _298  and  _299
REMARK  114  A    between atoms: _309  and  _311
REMARK  115  A    between atoms: _311  and  _312
REMARK  116  A    between atoms: _311  and  _314
REMARK  117  A    between atoms: _314  and  _315
REMARK  118  A    between atoms: _317  and  _319
REMARK  119  A    between atoms: _319  and  _320
REMARK  120  A    between atoms: _319  and  _322
REMARK  121  A    between atoms: _322  and  _323
REMARK  122  A    between atoms: _328  and  _330
REMARK  123  A    between atoms: _330  and  _331
REMARK  124  A    between atoms: _330  and  _333
REMARK  125  A    between atoms: _333  and  _334
REMARK  126  A    between atoms: _340  and  _342
REMARK  127  A    between atoms: _342  and  _343
REMARK  128  A    between atoms: _342  and  _345
REMARK  129  A    between atoms: _345  and  _346
REMARK  130  A    between atoms: _346  and  _347
REMARK  131  A    between atoms: _350  and  _352
REMARK  132  A    between atoms: _352  and  _353
REMARK  133  A    between atoms: _352  and  _355
REMARK  134  A    between atoms: _355  and  _356
REMARK  135  A    between atoms: _366  and  _368
REMARK  136  A    between atoms: _368  and  _369
REMARK  137  A    between atoms: _368  and  _371
REMARK  138  A    between atoms: _371  and  _372
REMARK  139  A    between atoms: _372  and  _373
REMARK  140  A    between atoms: _376  and  _378
REMARK  141  A    between atoms: _378  and  _379
REMARK  142  A    between atoms: _378  and  _381
REMARK  143  A    between atoms: _381  and  _382
REMARK  144  A    between atoms: _382  and  _383
REMARK  145  A    between atoms: _383  and  _384
REMARK  146  A    between atoms: _384  and  _385
REMARK  147  A    between atoms: _389  and  _391
REMARK  148  A    between atoms: _391  and  _392
REMARK  149  A    between atoms: _391  and  _394
REMARK  150  A    between atoms: _394  and  _395
REMARK                            x       y       z     vdW  Elec       q    Type
REMARK                         _______ _______ _______ _____ _____    ______ ____
ROOT
ATOM      1  O   HOH     1       7.671   8.122   9.429  0.00  0.00    +0.000 OA
ENDROOT
TORSDOF 0
REMARK  Name = ../refined-set-2016/1oif/1oif_pocket.pdb
REMARK  150 active torsions:
REMARK  status: ('A' for Active; 'I' for Inactive)
REMARK    1  A    between atoms: _1  and  _3
REMARK    2  A    between atoms: _3  and  _4
REMARK    3  A    between atoms: _7  and  _9
REMARK    4  A    between atoms: _9  and  _10
REMARK    5  A    between atoms: _9  and  _12
REMARK    6  A    between atoms: _12  and  _13
REMARK    7  A    between atoms: _16  and  _18
REMARK    8  A    between atoms: _18  and  _19
REMARK    9  A    between atoms: _22  and  _24
REMARK   10  A    between atoms: _24  and  _25
REMARK   11  A    between atoms: _24  and  _27
REMARK   12  A    between atoms: _27  and  _28
REMARK   13  A    between atoms: _30  and  _32
REMARK   14  A    between atoms: _32  and  _33
REMARK   15  A    between atoms: _32  and  _35
REMARK   16  A    between atoms: _35  and  _36
REMARK   17  A    between atoms: _41  and  _42
REMARK   18  A    between atoms: _44  and  _46
REMARK   19  A    between atoms: _46  and  _47
REMARK   20  A    between atoms: _46  and  _49
REMARK   21  A    between atoms: _49  and  _50
REMARK   22  A    between atoms: _50  and  _51
REMARK   23  A    between atoms: _56  and  _58
REMARK   24  A    between atoms: _58  and  _59
REMARK   25  A    between atoms: _58  and  _61
REMARK   26  A    between atoms: _61  and  _62
REMARK   27  A    between atoms: _62  and  _63
REMARK   28  A    between atoms: _63  and  _64
REMARK   29  A    between atoms: _73  and  _75
REMARK   30  A    between atoms: _75  and  _76
REMARK   31  A    between atoms: _75  and  _78
REMARK   32  A    between atoms: _78  and  _79
REMARK   33  A    between atoms: _84  and  _86
REMARK   34  A    between atoms: _86  and  _87
REMARK   35  A    between atoms: _86  and  _89
REMARK   36  A    between atoms: _89  and  _90
REMARK   37  A    between atoms: _100  and  _102
REMARK   38  A    between atoms: _102  and  _103
REMARK   39  A    between atoms: _102  and  _105
REMARK   40  A    between atoms: _105  and  _106
REMARK   41  A    between atoms: _111  and  _113
REMARK   42  A    between atoms: _113  and  _114
REMARK   43  A    between atoms: _113  and  _116
REMARK   44  A    between atoms: _116  and  _117
REMARK   45  A    between atoms: _117  and  _118
REMARK   46  A    between atoms: _121  and  _123
REMARK   47  A    between atoms: _123  and  _124
REMARK   48  A    between atoms: _123  and  _126
REMARK   49  A    between atoms: _129  and  _131
REMARK   50  A    between atoms: _131  and  _132
REMARK   51  A    between atoms: _131  and  _134
REMARK   52  A    between atoms: _134  and  _135
REMARK   53  A    between atoms: _140  and  _142
REMARK   54  A    between atoms: _142  and  _143
REMARK   55  A    between atoms: _142  and  _145
REMARK   56  A    between atoms: _148  and  _150
REMARK   57  A    between atoms: _150  and  _151
REMARK   58  A    between atoms: _150  and  _153
REMARK   59  A    between atoms: _153  and  _154
REMARK   60  A    between atoms: _160  and  _162
REMARK   61  A    between atoms: _162  and  _163
REMARK   62  A    between atoms: _162  and  _165
REMARK   63  A    between atoms: _165  and  _166
REMARK   64  A    between atoms: _171  and  _173
REMARK   65  A    between atoms: _173  and  _174
REMARK   66  A    between atoms: _173  and  _176
REMARK   67  A    between atoms: _176  and  _177
REMARK   68  A    between atoms: _182  and  _184
REMARK   69  A    between atoms: _184  and  _185
REMARK   70  A    between atoms: _184  and  _187
REMARK   71  A    between atoms: _187  and  _188
REMARK   72  A    between atoms: _193  and  _195
REMARK   73  A    between atoms: _195  and  _196
REMARK   74  A    between atoms: _195  and  _198
REMARK   75  A    between atoms: _198  and  _199
REMARK   76  A    between atoms: _204  and  _205
REMARK   77  A    between atoms: _207  and  _209
REMARK   78  A    between atoms: _209  and  _210
REMARK   79  A    between atoms: _209  and  _212
REMARK   80  A    between atoms: _212  and  _213
REMARK   81  A    between atoms: _218  and  _219
REMARK   82  A    between atoms: _221  and  _223
REMARK   83  A    between atoms: _223  and  _224
REMARK   84  A    between atoms: _223  and  _226
REMARK   85  A    between atoms: _226  and  _227
REMARK   86  A    between atoms: _227  and  _228
REMARK   87  A    between atoms: _230  and  _232
REMARK   88  A    between atoms: _232  and  _233
REMARK   89  A    between atoms: _232  and  _235
REMARK   90  A    between atoms: _235  and  _236
REMARK   91  A    between atoms: _246  and  _248
REMARK   92  A    between atoms: _248  and  _249
REMARK   93  A    between atoms: _248  and  _251
REMARK   94  A    between atoms: _251  and  _252
REMARK   95  A    between atoms: _255  and  _257
REMARK   96  A    between atoms: _257  and  _258
REMARK   97  A    between atoms: _257  and  _260
REMARK   98  A    between atoms: _260  and  _261
REMARK   99  A    between atoms: _261  and  _262
REMARK  100  A    between atoms: _265  and  _267
REMARK  101  A    between atoms: _267  and  _268
REMARK  102  A    between atoms: _267  and  _270
REMARK  103  A    between atoms: _270  and  _271
REMARK  104  A    between atoms: _276  and  _278
REMARK  105  A    between atoms: _278  and  _279
REMARK  106  A    between atoms: _281  and  _283
REMARK  107  A    between atoms: _283  and  _284
REMARK  108  A    between atoms: _287  and  _289
REMARK  109  A    between atoms: _289  and  _290
REMARK  110  A    between atoms: _293  and  _295
REMARK  111  A    between atoms: _295  and  _296
REMARK  112  A    between atoms: _295  and  _298
REMARK  113  A    between atoms: _298  and  _299
REMARK  114  A    between atoms: _309  and  _311
REMARK  115  A    between atoms: _311  and  _312
REMARK  116  A    between atoms: _311  and  _314
REMARK  117  A    between atoms: _314  and  _315
REMARK  118  A    between atoms: _317  and  _319
REMARK  119  A    between atoms: _319  and  _320
REMARK  120  A    between atoms: _319  and  _322
REMARK  121  A    between atoms: _322  and  _323
REMARK  122  A    between atoms: _328  and  _330
REMARK  123  A    between atoms: _330  and  _331
REMARK  124  A    between atoms: _330  and  _333
REMARK  125  A    between atoms: _333  and  _334
REMARK  126  A    between atoms: _340  and  _342
REMARK  127  A    between atoms: _342  and  _343
REMARK  128  A    between atoms: _342  and  _345
REMARK  129  A    between atoms: _345  and  _346
REMARK  130  A    between atoms: _346  and  _347
REMARK  131  A    between atoms: _350  and  _352
REMARK  132  A    between atoms: _352  and  _353
REMARK  133  A    between atoms: _352  and  _355
REMARK  134  A    between atoms: _355  and  _356
REMARK  135  A    between atoms: _366  and  _368
REMARK  136  A    between atoms: _368  and  _369
REMARK  137  A    between atoms: _368  and  _371
REMARK  138  A    between atoms: _371  and  _372
REMARK  139  A    between atoms: _372  and  _373
REMARK  140  A    between atoms: _376  and  _378
REMARK  141  A    between atoms: _378  and  _379
REMARK  142  A    between atoms: _378  and  _381
REMARK  143  A    between atoms: _381  and  _382
REMARK  144  A    between atoms: _382  and  _383
REMARK  145  A    between atoms: _383  and  _384
REMARK  146  A    between atoms: _384  and  _385
REMARK  147  A    between atoms: _389  and  _391
REMARK  148  A    between atoms: _391  and  _392
REMARK  149  A    between atoms: _391  and  _394
REMARK  150  A    between atoms: _394  and  _395
REMARK                            x       y       z     vdW  Elec       q    Type
REMARK                         _______ _______ _______ _____ _____    ______ ____
ROOT
ATOM      1  O   HOH     1       2.234   3.743   6.269  0.00  0.00    +0.000 OA
ENDROOT
TORSDOF 0
REMARK  Name = ../refined-set-2016/1oif/1oif_pocket.pdb
REMARK  150 active torsions:
REMARK  status: ('A' for Active; 'I' for Inactive)
REMARK    1  A    between atoms: _1  and  _3
REMARK    2  A    between atoms: _3  and  _4
REMARK    3  A    between atoms: _7  and  _9
REMARK    4  A    between atoms: _9  and  _10
REMARK    5  A    between atoms: _9  and  _12
REMARK    6  A    between atoms: _12  and  _13
REMARK    7  A    between atoms: _16  and  _18
REMARK    8  A    between atoms: _18  and  _19
REMARK    9  A    between atoms: _22  and  _24
REMARK   10  A    between atoms: _24  and  _25
REMARK   11  A    between atoms: _24  and  _27
REMARK   12  A    between atoms: _27  and  _28
REMARK   13  A    between atoms: _30  and  _32
REMARK   14  A    between atoms: _32  and  _33
REMARK   15  A    between atoms: _32  and  _35
REMARK   16  A    between atoms: _35  and  _36
REMARK   17  A    between atoms: _41  and  _42
REMARK   18  A    between atoms: _44  and  _46
REMARK   19  A    between atoms: _46  and  _47
REMARK   20  A    between atoms: _46  and  _49
REMARK   21  A    between atoms: _49  and  _50
REMARK   22  A    between atoms: _50  and  _51
REMARK   23  A    between atoms: _56  and  _58
REMARK   24  A    between atoms: _58  and  _59
REMARK   25  A    between atoms: _58  and  _61
REMARK   26  A    between atoms: _61  and  _62
REMARK   27  A    between atoms: _62  and  _63
REMARK   28  A    between atoms: _63  and  _64
REMARK   29  A    between atoms: _73  and  _75
REMARK   30  A    between atoms: _75  and  _76
REMARK   31  A    between atoms: _75  and  _78
REMARK   32  A    between atoms: _78  and  _79
REMARK   33  A    between atoms: _84  and  _86
REMARK   34  A    between atoms: _86  and  _87
REMARK   35  A    between atoms: _86  and  _89
REMARK   36  A    between atoms: _89  and  _90
REMARK   37  A    between atoms: _100  and  _102
REMARK   38  A    between atoms: _102  and  _103
REMARK   39  A    between atoms: _102  and  _105
REMARK   40  A    between atoms: _105  and  _106
REMARK   41  A    between atoms: _111  and  _113
REMARK   42  A    between atoms: _113  and  _114
REMARK   43  A    between atoms: _113  and  _116
REMARK   44  A    between atoms: _116  and  _117
REMARK   45  A    between atoms: _117  and  _118
REMARK   46  A    between atoms: _121  and  _123
REMARK   47  A    between atoms: _123  and  _124
REMARK   48  A    between atoms: _123  and  _126
REMARK   49  A    between atoms: _129  and  _131
REMARK   50  A    between atoms: _131  and  _132
REMARK   51  A    between atoms: _131  and  _134
REMARK   52  A    between atoms: _134  and  _135
REMARK   53  A    between atoms: _140  and  _142
REMARK   54  A    between atoms: _142  and  _143
REMARK   55  A    between atoms: _142  and  _145
REMARK   56  A    between atoms: _148  and  _150
REMARK   57  A    between atoms: _150  and  _151
REMARK   58  A    between atoms: _150  and  _153
REMARK   59  A    between atoms: _153  and  _154
REMARK   60  A    between atoms: _160  and  _162
REMARK   61  A    between atoms: _162  and  _163
REMARK   62  A    between atoms: _162  and  _165
REMARK   63  A    between atoms: _165  and  _166
REMARK   64  A    between atoms: _171  and  _173
REMARK   65  A    between atoms: _173  and  _174
REMARK   66  A    between atoms: _173  and  _176
REMARK   67  A    between atoms: _176  and  _177
REMARK   68  A    between atoms: _182  and  _184
REMARK   69  A    between atoms: _184  and  _185
REMARK   70  A    between atoms: _184  and  _187
REMARK   71  A    between atoms: _187  and  _188
REMARK   72  A    between atoms: _193  and  _195
REMARK   73  A    between atoms: _195  and  _196
REMARK   74  A    between atoms: _195  and  _198
REMARK   75  A    between atoms: _198  and  _199
REMARK   76  A    between atoms: _204  and  _205
REMARK   77  A    between atoms: _207  and  _209
REMARK   78  A    between atoms: _209  and  _210
REMARK   79  A    between atoms: _209  and  _212
REMARK   80  A    between atoms: _212  and  _213
REMARK   81  A    between atoms: _218  and  _219
REMARK   82  A    between atoms: _221  and  _223
REMARK   83  A    between atoms: _223  and  _224
REMARK   84  A    between atoms: _223  and  _226
REMARK   85  A    between atoms: _226  and  _227
REMARK   86  A    between atoms: _227  and  _228
REMARK   87  A    between atoms: _230  and  _232
REMARK   88  A    between atoms: _232  and  _233
REMARK   89  A    between atoms: _232  and  _235
REMARK   90  A    between atoms: _235  and  _236
REMARK   91  A    between atoms: _246  and  _248
REMARK   92  A    between atoms: _248  and  _249
REMARK   93  A    between atoms: _248  and  _251
REMARK   94  A    between atoms: _251  and  _252
REMARK   95  A    between atoms: _255  and  _257
REMARK   96  A    between atoms: _257  and  _258
REMARK   97  A    between atoms: _257  and  _260
REMARK   98  A    between atoms: _260  and  _261
REMARK   99  A    between atoms: _261  and  _262
REMARK  100  A    between atoms: _265  and  _267
REMARK  101  A    between atoms: _267  and  _268
REMARK  102  A    between atoms: _267  and  _270
REMARK  103  A    between atoms: _270  and  _271
REMARK  104  A    between atoms: _276  and  _278
REMARK  105  A    between atoms: _278  and  _279
REMARK  106  A    between atoms: _281  and  _283
REMARK  107  A    between atoms: _283  and  _284
REMARK  108  A    between atoms: _287  and  _289
REMARK  109  A    between atoms: _289  and  _290
REMARK  110  A    between atoms: _293  and  _295
REMARK  111  A    between atoms: _295  and  _296
REMARK  112  A    between atoms: _295  and  _298
REMARK  113  A    between atoms: _298  and  _299
REMARK  114  A    between atoms: _309  and  _311
REMARK  115  A    between atoms: _311  and  _312
REMARK  116  A    between atoms: _311  and  _314
REMARK  117  A    between atoms: _314  and  _315
REMARK  118  A    between atoms: _317  and  _319
REMARK  119  A    between atoms: _319  and  _320
REMARK  120  A    between atoms: _319  and  _322
REMARK  121  A    between atoms: _322  and  _323
REMARK  122  A    between atoms: _328  and  _330
REMARK  123  A    between atoms: _330  and  _331
REMARK  124  A    between atoms: _330  and  _333
REMARK  125  A    between atoms: _333  and  _334
REMARK  126  A    between atoms: _340  and  _342
REMARK  127  A    between atoms: _342  and  _343
REMARK  128  A    between atoms: _342  and  _345
REMARK  129  A    between atoms: _345  and  _346
REMARK  130  A    between atoms: _346  and  _347
REMARK  131  A    between atoms: _350  and  _352
REMARK  132  A    between atoms: _352  and  _353
REMARK  133  A    between atoms: _352  and  _355
REMARK  134  A    between atoms: _355  and  _356
REMARK  135  A    between atoms: _366  and  _368
REMARK  136  A    between atoms: _368  and  _369
REMARK  137  A    between atoms: _368  and  _371
REMARK  138  A    between atoms: _371  and  _372
REMARK  139  A    between atoms: _372  and  _373
REMARK  140  A    between atoms: _376  and  _378
REMARK  141  A    between atoms: _378  and  _379
REMARK  142  A    between atoms: _378  and  _381
REMARK  143  A    between atoms: _381  and  _382
REMARK  144  A    between atoms: _382  and  _383
REMARK  145  A    between atoms: _383  and  _384
REMARK  146  A    between atoms: _384  and  _385
REMARK  147  A    between atoms: _389  and  _391
REMARK  148  A    between atoms: _391  and  _392
REMARK  149  A    between atoms: _391  and  _394
REMARK  150  A    between atoms: _394  and  _395
REMARK                            x       y       z     vdW  Elec       q    Type
REMARK                         _______ _______ _______ _____ _____    ______ ____
ROOT
ATOM      1  O   HOH     1      -2.517   9.870  16.312  0.00  0.00    +0.000 OA
ENDROOT
TORSDOF 0
REMARK  Name = ../refined-set-2016/1oif/1oif_pocket.pdb
REMARK  150 active torsions:
REMARK  status: ('A' for Active; 'I' for Inactive)
REMARK    1  A    between atoms: _1  and  _3
REMARK    2  A    between atoms: _3  and  _4
REMARK    3  A    between atoms: _7  and  _9
REMARK    4  A    between atoms: _9  and  _10
REMARK    5  A    between atoms: _9  and  _12
REMARK    6  A    between atoms: _12  and  _13
REMARK    7  A    between atoms: _16  and  _18
REMARK    8  A    between atoms: _18  and  _19
REMARK    9  A    between atoms: _22  and  _24
REMARK   10  A    between atoms: _24  and  _25
REMARK   11  A    between atoms: _24  and  _27
REMARK   12  A    between atoms: _27  and  _28
REMARK   13  A    between atoms: _30  and  _32
REMARK   14  A    between atoms: _32  and  _33
REMARK   15  A    between atoms: _32  and  _35
REMARK   16  A    between atoms: _35  and  _36
REMARK   17  A    between atoms: _41  and  _42
REMARK   18  A    between atoms: _44  and  _46
REMARK   19  A    between atoms: _46  and  _47
REMARK   20  A    between atoms: _46  and  _49
REMARK   21  A    between atoms: _49  and  _50
REMARK   22  A    between atoms: _50  and  _51
REMARK   23  A    between atoms: _56  and  _58
REMARK   24  A    between atoms: _58  and  _59
REMARK   25  A    between atoms: _58  and  _61
REMARK   26  A    between atoms: _61  and  _62
REMARK   27  A    between atoms: _62  and  _63
REMARK   28  A    between atoms: _63  and  _64
REMARK   29  A    between atoms: _73  and  _75
REMARK   30  A    between atoms: _75  and  _76
REMARK   31  A    between atoms: _75  and  _78
REMARK   32  A    between atoms: _78  and  _79
REMARK   33  A    between atoms: _84  and  _86
REMARK   34  A    between atoms: _86  and  _87
REMARK   35  A    between atoms: _86  and  _89
REMARK   36  A    between atoms: _89  and  _90
REMARK   37  A    between atoms: _100  and  _102
REMARK   38  A    between atoms: _102  and  _103
REMARK   39  A    between atoms: _102  and  _105
REMARK   40  A    between atoms: _105  and  _106
REMARK   41  A    between atoms: _111  and  _113
REMARK   42  A    between atoms: _113  and  _114
REMARK   43  A    between atoms: _113  and  _116
REMARK   44  A    between atoms: _116  and  _117
REMARK   45  A    between atoms: _117  and  _118
REMARK   46  A    between atoms: _121  and  _123
REMARK   47  A    between atoms: _123  and  _124
REMARK   48  A    between atoms: _123  and  _126
REMARK   49  A    between atoms: _129  and  _131
REMARK   50  A    between atoms: _131  and  _132
REMARK   51  A    between atoms: _131  and  _134
REMARK   52  A    between atoms: _134  and  _135
REMARK   53  A    between atoms: _140  and  _142
REMARK   54  A    between atoms: _142  and  _143
REMARK   55  A    between atoms: _142  and  _145
REMARK   56  A    between atoms: _148  and  _150
REMARK   57  A    between atoms: _150  and  _151
REMARK   58  A    between atoms: _150  and  _153
REMARK   59  A    between atoms: _153  and  _154
REMARK   60  A    between atoms: _160  and  _162
REMARK   61  A    between atoms: _162  and  _163
REMARK   62  A    between atoms: _162  and  _165
REMARK   63  A    between atoms: _165  and  _166
REMARK   64  A    between atoms: _171  and  _173
REMARK   65  A    between atoms: _173  and  _174
REMARK   66  A    between atoms: _173  and  _176
REMARK   67  A    between atoms: _176  and  _177
REMARK   68  A    between atoms: _182  and  _184
REMARK   69  A    between atoms: _184  and  _185
REMARK   70  A    between atoms: _184  and  _187
REMARK   71  A    between atoms: _187  and  _188
REMARK   72  A    between atoms: _193  and  _195
REMARK   73  A    between atoms: _195  and  _196
REMARK   74  A    between atoms: _195  and  _198
REMARK   75  A    between atoms: _198  and  _199
REMARK   76  A    between atoms: _204  and  _205
REMARK   77  A    between atoms: _207  and  _209
REMARK   78  A    between atoms: _209  and  _210
REMARK   79  A    between atoms: _209  and  _212
REMARK   80  A    between atoms: _212  and  _213
REMARK   81  A    between atoms: _218  and  _219
REMARK   82  A    between atoms: _221  and  _223
REMARK   83  A    between atoms: _223  and  _224
REMARK   84  A    between atoms: _223  and  _226
REMARK   85  A    between atoms: _226  and  _227
REMARK   86  A    between atoms: _227  and  _228
REMARK   87  A    between atoms: _230  and  _232
REMARK   88  A    between atoms: _232  and  _233
REMARK   89  A    between atoms: _232  and  _235
REMARK   90  A    between atoms: _235  and  _236
REMARK   91  A    between atoms: _246  and  _248
REMARK   92  A    between atoms: _248  and  _249
REMARK   93  A    between atoms: _248  and  _251
REMARK   94  A    between atoms: _251  and  _252
REMARK   95  A    between atoms: _255  and  _257
REMARK   96  A    between atoms: _257  and  _258
REMARK   97  A    between atoms: _257  and  _260
REMARK   98  A    between atoms: _260  and  _261
REMARK   99  A    between atoms: _261  and  _262
REMARK  100  A    between atoms: _265  and  _267
REMARK  101  A    between atoms: _267  and  _268
REMARK  102  A    between atoms: _267  and  _270
REMARK  103  A    between atoms: _270  and  _271
REMARK  104  A    between atoms: _276  and  _278
REMARK  105  A    between atoms: _278  and  _279
REMARK  106  A    between atoms: _281  and  _283
REMARK  107  A    between atoms: _283  and  _284
REMARK  108  A    between atoms: _287  and  _289
REMARK  109  A    between atoms: _289  and  _290
REMARK  110  A    between atoms: _293  and  _295
REMARK  111  A    between atoms: _295  and  _296
REMARK  112  A    between atoms: _295  and  _298
REMARK  113  A    between atoms: _298  and  _299
REMARK  114  A    between atoms: _309  and  _311
REMARK  115  A    between atoms: _311  and  _312
REMARK  116  A    between atoms: _311  and  _314
REMARK  117  A    between atoms: _314  and  _315
REMARK  118  A    between atoms: _317  and  _319
REMARK  119  A    between atoms: _319  and  _320
REMARK  120  A    between atoms: _319  and  _322
REMARK  121  A    between atoms: _322  and  _323
REMARK  122  A    between atoms: _328  and  _330
REMARK  123  A    between atoms: _330  and  _331
REMARK  124  A    between atoms: _330  and  _333
REMARK  125  A    between atoms: _333  and  _334
REMARK  126  A    between atoms: _340  and  _342
REMARK  127  A    between atoms: _342  and  _343
REMARK  128  A    between atoms: _342  and  _345
REMARK  129  A    between atoms: _345  and  _346
REMARK  130  A    between atoms: _346  and  _347
REMARK  131  A    between atoms: _350  and  _352
REMARK  132  A    between atoms: _352  and  _353
REMARK  133  A    between atoms: _352  and  _355
REMARK  134  A    between atoms: _355  and  _356
REMARK  135  A    between atoms: _366  and  _368
REMARK  136  A    between atoms: _368  and  _369
REMARK  137  A    between atoms: _368  and  _371
REMARK  138  A    between atoms: _371  and  _372
REMARK  139  A    between atoms: _372  and  _373
REMARK  140  A    between atoms: _376  and  _378
REMARK  141  A    between atoms: _378  and  _379
REMARK  142  A    between atoms: _378  and  _381
REMARK  143  A    between atoms: _381  and  _382
REMARK  144  A    between atoms: _382  and  _383
REMARK  145  A    between atoms: _383  and  _384
REMARK  146  A    between atoms: _384  and  _385
REMARK  147  A    between atoms: _389  and  _391
REMARK  148  A    between atoms: _391  and  _392
REMARK  149  A    between atoms: _391  and  _394
REMARK  150  A    between atoms: _394  and  _395
REMARK                            x       y       z     vdW  Elec       q    Type
REMARK                         _______ _______ _______ _____ _____    ______ ____
ROOT
ATOM      1  O   HOH     1      -8.707   6.107   9.169  0.00  0.00    +0.000 OA
ENDROOT
TORSDOF 0
REMARK  Name = ../refined-set-2016/1oif/1oif_pocket.pdb
REMARK  150 active torsions:
REMARK  status: ('A' for Active; 'I' for Inactive)
REMARK    1  A    between atoms: _1  and  _3
REMARK    2  A    between atoms: _3  and  _4
REMARK    3  A    between atoms: _7  and  _9
REMARK    4  A    between atoms: _9  and  _10
REMARK    5  A    between atoms: _9  and  _12
REMARK    6  A    between atoms: _12  and  _13
REMARK    7  A    between atoms: _16  and  _18
REMARK    8  A    between atoms: _18  and  _19
REMARK    9  A    between atoms: _22  and  _24
REMARK   10  A    between atoms: _24  and  _25
REMARK   11  A    between atoms: _24  and  _27
REMARK   12  A    between atoms: _27  and  _28
REMARK   13  A    between atoms: _30  and  _32
REMARK   14  A    between atoms: _32  and  _33
REMARK   15  A    between atoms: _32  and  _35
REMARK   16  A    between atoms: _35  and  _36
REMARK   17  A    between atoms: _41  and  _42
REMARK   18  A    between atoms: _44  and  _46
REMARK   19  A    between atoms: _46  and  _47
REMARK   20  A    between atoms: _46  and  _49
REMARK   21  A    between atoms: _49  and  _50
REMARK   22  A    between atoms: _50  and  _51
REMARK   23  A    between atoms: _56  and  _58
REMARK   24  A    between atoms: _58  and  _59
REMARK   25  A    between atoms: _58  and  _61
REMARK   26  A    between atoms: _61  and  _62
REMARK   27  A    between atoms: _62  and  _63
REMARK   28  A    between atoms: _63  and  _64
REMARK   29  A    between atoms: _73  and  _75
REMARK   30  A    between atoms: _75  and  _76
REMARK   31  A    between atoms: _75  and  _78
REMARK   32  A    between atoms: _78  and  _79
REMARK   33  A    between atoms: _84  and  _86
REMARK   34  A    between atoms: _86  and  _87
REMARK   35  A    between atoms: _86  and  _89
REMARK   36  A    between atoms: _89  and  _90
REMARK   37  A    between atoms: _100  and  _102
REMARK   38  A    between atoms: _102  and  _103
REMARK   39  A    between atoms: _102  and  _105
REMARK   40  A    between atoms: _105  and  _106
REMARK   41  A    between atoms: _111  and  _113
REMARK   42  A    between atoms: _113  and  _114
REMARK   43  A    between atoms: _113  and  _116
REMARK   44  A    between atoms: _116  and  _117
REMARK   45  A    between atoms: _117  and  _118
REMARK   46  A    between atoms: _121  and  _123
REMARK   47  A    between atoms: _123  and  _124
REMARK   48  A    between atoms: _123  and  _126
REMARK   49  A    between atoms: _129  and  _131
REMARK   50  A    between atoms: _131  and  _132
REMARK   51  A    between atoms: _131  and  _134
REMARK   52  A    between atoms: _134  and  _135
REMARK   53  A    between atoms: _140  and  _142
REMARK   54  A    between atoms: _142  and  _143
REMARK   55  A    between atoms: _142  and  _145
REMARK   56  A    between atoms: _148  and  _150
REMARK   57  A    between atoms: _150  and  _151
REMARK   58  A    between atoms: _150  and  _153
REMARK   59  A    between atoms: _153  and  _154
REMARK   60  A    between atoms: _160  and  _162
REMARK   61  A    between atoms: _162  and  _163
REMARK   62  A    between atoms: _162  and  _165
REMARK   63  A    between atoms: _165  and  _166
REMARK   64  A    between atoms: _171  and  _173
REMARK   65  A    between atoms: _173  and  _174
REMARK   66  A    between atoms: _173  and  _176
REMARK   67  A    between atoms: _176  and  _177
REMARK   68  A    between atoms: _182  and  _184
REMARK   69  A    between atoms: _184  and  _185
REMARK   70  A    between atoms: _184  and  _187
REMARK   71  A    between atoms: _187  and  _188
REMARK   72  A    between atoms: _193  and  _195
REMARK   73  A    between atoms: _195  and  _196
REMARK   74  A    between atoms: _195  and  _198
REMARK   75  A    between atoms: _198  and  _199
REMARK   76  A    between atoms: _204  and  _205
REMARK   77  A    between atoms: _207  and  _209
REMARK   78  A    between atoms: _209  and  _210
REMARK   79  A    between atoms: _209  and  _212
REMARK   80  A    between atoms: _212  and  _213
REMARK   81  A    between atoms: _218  and  _219
REMARK   82  A    between atoms: _221  and  _223
REMARK   83  A    between atoms: _223  and  _224
REMARK   84  A    between atoms: _223  and  _226
REMARK   85  A    between atoms: _226  and  _227
REMARK   86  A    between atoms: _227  and  _228
REMARK   87  A    between atoms: _230  and  _232
REMARK   88  A    between atoms: _232  and  _233
REMARK   89  A    between atoms: _232  and  _235
REMARK   90  A    between atoms: _235  and  _236
REMARK   91  A    between atoms: _246  and  _248
REMARK   92  A    between atoms: _248  and  _249
REMARK   93  A    between atoms: _248  and  _251
REMARK   94  A    between atoms: _251  and  _252
REMARK   95  A    between atoms: _255  and  _257
REMARK   96  A    between atoms: _257  and  _258
REMARK   97  A    between atoms: _257  and  _260
REMARK   98  A    between atoms: _260  and  _261
REMARK   99  A    between atoms: _261  and  _262
REMARK  100  A    between atoms: _265  and  _267
REMARK  101  A    between atoms: _267  and  _268
REMARK  102  A    between atoms: _267  and  _270
REMARK  103  A    between atoms: _270  and  _271
REMARK  104  A    between atoms: _276  and  _278
REMARK  105  A    between atoms: _278  and  _279
REMARK  106  A    between atoms: _281  and  _283
REMARK  107  A    between atoms: _283  and  _284
REMARK  108  A    between atoms: _287  and  _289
REMARK  109  A    between atoms: _289  and  _290
REMARK  110  A    between atoms: _293  and  _295
REMARK  111  A    between atoms: _295  and  _296
REMARK  112  A    between atoms: _295  and  _298
REMARK  113  A    between atoms: _298  and  _299
REMARK  114  A    between atoms: _309  and  _311
REMARK  115  A    between atoms: _311  and  _312
REMARK  116  A    between atoms: _311  and  _314
REMARK  117  A    between atoms: _314  and  _315
REMARK  118  A    between atoms: _317  and  _319
REMARK  119  A    between atoms: _319  and  _320
REMARK  120  A    between atoms: _319  and  _322
REMARK  121  A    between atoms: _322  and  _323
REMARK  122  A    between atoms: _328  and  _330
REMARK  123  A    between atoms: _330  and  _331
REMARK  124  A    between atoms: _330  and  _333
REMARK  125  A    between atoms: _333  and  _334
REMARK  126  A    between atoms: _340  and  _342
REMARK  127  A    between atoms: _342  and  _343
REMARK  128  A    between atoms: _342  and  _345
REMARK  129  A    between atoms: _345  and  _346
REMARK  130  A    between atoms: _346  and  _347
REMARK  131  A    between atoms: _350  and  _352
REMARK  132  A    between atoms: _352  and  _353
REMARK  133  A    between atoms: _352  and  _355
REMARK  134  A    between atoms: _355  and  _356
REMARK  135  A    between atoms: _366  and  _368
REMARK  136  A    between atoms: _368  and  _369
REMARK  137  A    between atoms: _368  and  _371
REMARK  138  A    between atoms: _371  and  _372
REMARK  139  A    between atoms: _372  and  _373
REMARK  140  A    between atoms: _376  and  _378
REMARK  141  A    between atoms: _378  and  _379
REMARK  142  A    between atoms: _378  and  _381
REMARK  143  A    between atoms: _381  and  _382
REMARK  144  A    between atoms: _382  and  _383
REMARK  145  A    between atoms: _383  and  _384
REMARK  146  A    between atoms: _384  and  _385
REMARK  147  A    between atoms: _389  and  _391
REMARK  148  A    between atoms: _391  and  _392
REMARK  149  A    between atoms: _391  and  _394
REMARK  150  A    between atoms: _394  and  _395
REMARK                            x       y       z     vdW  Elec       q    Type
REMARK                         _______ _______ _______ _____ _____    ______ ____
ROOT
ATOM      1  O   HOH     1      -0.591   1.041  11.619  0.00  0.00    +0.000 OA
ENDROOT
TORSDOF 0
REMARK  Name = ../refined-set-2016/1oif/1oif_pocket.pdb
REMARK  150 active torsions:
REMARK  status: ('A' for Active; 'I' for Inactive)
REMARK    1  A    between atoms: _1  and  _3
REMARK    2  A    between atoms: _3  and  _4
REMARK    3  A    between atoms: _7  and  _9
REMARK    4  A    between atoms: _9  and  _10
REMARK    5  A    between atoms: _9  and  _12
REMARK    6  A    between atoms: _12  and  _13
REMARK    7  A    between atoms: _16  and  _18
REMARK    8  A    between atoms: _18  and  _19
REMARK    9  A    between atoms: _22  and  _24
REMARK   10  A    between atoms: _24  and  _25
REMARK   11  A    between atoms: _24  and  _27
REMARK   12  A    between atoms: _27  and  _28
REMARK   13  A    between atoms: _30  and  _32
REMARK   14  A    between atoms: _32  and  _33
REMARK   15  A    between atoms: _32  and  _35
REMARK   16  A    between atoms: _35  and  _36
REMARK   17  A    between atoms: _41  and  _42
REMARK   18  A    between atoms: _44  and  _46
REMARK   19  A    between atoms: _46  and  _47
REMARK   20  A    between atoms: _46  and  _49
REMARK   21  A    between atoms: _49  and  _50
REMARK   22  A    between atoms: _50  and  _51
REMARK   23  A    between atoms: _56  and  _58
REMARK   24  A    between atoms: _58  and  _59
REMARK   25  A    between atoms: _58  and  _61
REMARK   26  A    between atoms: _61  and  _62
REMARK   27  A    between atoms: _62  and  _63
REMARK   28  A    between atoms: _63  and  _64
REMARK   29  A    between atoms: _73  and  _75
REMARK   30  A    between atoms: _75  and  _76
REMARK   31  A    between atoms: _75  and  _78
REMARK   32  A    between atoms: _78  and  _79
REMARK   33  A    between atoms: _84  and  _86
REMARK   34  A    between atoms: _86  and  _87
REMARK   35  A    between atoms: _86  and  _89
REMARK   36  A    between atoms: _89  and  _90
REMARK   37  A    between atoms: _100  and  _102
REMARK   38  A    between atoms: _102  and  _103
REMARK   39  A    between atoms: _102  and  _105
REMARK   40  A    between atoms: _105  and  _106
REMARK   41  A    between atoms: _111  and  _113
REMARK   42  A    between atoms: _113  and  _114
REMARK   43  A    between atoms: _113  and  _116
REMARK   44  A    between atoms: _116  and  _117
REMARK   45  A    between atoms: _117  and  _118
REMARK   46  A    between atoms: _121  and  _123
REMARK   47  A    between atoms: _123  and  _124
REMARK   48  A    between atoms: _123  and  _126
REMARK   49  A    between atoms: _129  and  _131
REMARK   50  A    between atoms: _131  and  _132
REMARK   51  A    between atoms: _131  and  _134
REMARK   52  A    between atoms: _134  and  _135
REMARK   53  A    between atoms: _140  and  _142
REMARK   54  A    between atoms: _142  and  _143
REMARK   55  A    between atoms: _142  and  _145
REMARK   56  A    between atoms: _148  and  _150
REMARK   57  A    between atoms: _150  and  _151
REMARK   58  A    between atoms: _150  and  _153
REMARK   59  A    between atoms: _153  and  _154
REMARK   60  A    between atoms: _160  and  _162
REMARK   61  A    between atoms: _162  and  _163
REMARK   62  A    between atoms: _162  and  _165
REMARK   63  A    between atoms: _165  and  _166
REMARK   64  A    between atoms: _171  and  _173
REMARK   65  A    between atoms: _173  and  _174
REMARK   66  A    between atoms: _173  and  _176
REMARK   67  A    between atoms: _176  and  _177
REMARK   68  A    between atoms: _182  and  _184
REMARK   69  A    between atoms: _184  and  _185
REMARK   70  A    between atoms: _184  and  _187
REMARK   71  A    between atoms: _187  and  _188
REMARK   72  A    between atoms: _193  and  _195
REMARK   73  A    between atoms: _195  and  _196
REMARK   74  A    between atoms: _195  and  _198
REMARK   75  A    between atoms: _198  and  _199
REMARK   76  A    between atoms: _204  and  _205
REMARK   77  A    between atoms: _207  and  _209
REMARK   78  A    between atoms: _209  and  _210
REMARK   79  A    between atoms: _209  and  _212
REMARK   80  A    between atoms: _212  and  _213
REMARK   81  A    between atoms: _218  and  _219
REMARK   82  A    between atoms: _221  and  _223
REMARK   83  A    between atoms: _223  and  _224
REMARK   84  A    between atoms: _223  and  _226
REMARK   85  A    between atoms: _226  and  _227
REMARK   86  A    between atoms: _227  and  _228
REMARK   87  A    between atoms: _230  and  _232
REMARK   88  A    between atoms: _232  and  _233
REMARK   89  A    between atoms: _232  and  _235
REMARK   90  A    between atoms: _235  and  _236
REMARK   91  A    between atoms: _246  and  _248
REMARK   92  A    between atoms: _248  and  _249
REMARK   93  A    between atoms: _248  and  _251
REMARK   94  A    between atoms: _251  and  _252
REMARK   95  A    between atoms: _255  and  _257
REMARK   96  A    between atoms: _257  and  _258
REMARK   97  A    between atoms: _257  and  _260
REMARK   98  A    between atoms: _260  and  _261
REMARK   99  A    between atoms: _261  and  _262
REMARK  100  A    between atoms: _265  and  _267
REMARK  101  A    between atoms: _267  and  _268
REMARK  102  A    between atoms: _267  and  _270
REMARK  103  A    between atoms: _270  and  _271
REMARK  104  A    between atoms: _276  and  _278
REMARK  105  A    between atoms: _278  and  _279
REMARK  106  A    between atoms: _281  and  _283
REMARK  107  A    between atoms: _283  and  _284
REMARK  108  A    between atoms: _287  and  _289
REMARK  109  A    between atoms: _289  and  _290
REMARK  110  A    between atoms: _293  and  _295
REMARK  111  A    between atoms: _295  and  _296
REMARK  112  A    between atoms: _295  and  _298
REMARK  113  A    between atoms: _298  and  _299
REMARK  114  A    between atoms: _309  and  _311
REMARK  115  A    between atoms: _311  and  _312
REMARK  116  A    between atoms: _311  and  _314
REMARK  117  A    between atoms: _314  and  _315
REMARK  118  A    between atoms: _317  and  _319
REMARK  119  A    between atoms: _319  and  _320
REMARK  120  A    between atoms: _319  and  _322
REMARK  121  A    between atoms: _322  and  _323
REMARK  122  A    between atoms: _328  and  _330
REMARK  123  A    between atoms: _330  and  _331
REMARK  124  A    between atoms: _330  and  _333
REMARK  125  A    between atoms: _333  and  _334
REMARK  126  A    between atoms: _340  and  _342
REMARK  127  A    between atoms: _342  and  _343
REMARK  128  A    between atoms: _342  and  _345
REMARK  129  A    between atoms: _345  and  _346
REMARK  130  A    between atoms: _346  and  _347
REMARK  131  A    between atoms: _350  and  _352
REMARK  132  A    between atoms: _352  and  _353
REMARK  133  A    between atoms: _352  and  _355
REMARK  134  A    between atoms: _355  and  _356
REMARK  135  A    between atoms: _366  and  _368
REMARK  136  A    between atoms: _368  and  _369
REMARK  137  A    between atoms: _368  and  _371
REMARK  138  A    between atoms: _371  and  _372
REMARK  139  A    between atoms: _372  and  _373
REMARK  140  A    between atoms: _376  and  _378
REMARK  141  A    between atoms: _378  and  _379
REMARK  142  A    between atoms: _378  and  _381
REMARK  143  A    between atoms: _381  and  _382
REMARK  144  A    between atoms: _382  and  _383
REMARK  145  A    between atoms: _383  and  _384
REMARK  146  A    between atoms: _384  and  _385
REMARK  147  A    between atoms: _389  and  _391
REMARK  148  A    between atoms: _391  and  _392
REMARK  149  A    between atoms: _391  and  _394
REMARK  150  A    between atoms: _394  and  _395
REMARK                            x       y       z     vdW  Elec       q    Type
REMARK                         _______ _______ _______ _____ _____    ______ ____
ROOT
ATOM      1  O   HOH     1      -9.477   7.683  11.519  0.00  0.00    +0.000 OA
ENDROOT
TORSDOF 0
REMARK  Name = ../refined-set-2016/1oif/1oif_pocket.pdb
REMARK  150 active torsions:
REMARK  status: ('A' for Active; 'I' for Inactive)
REMARK    1  A    between atoms: _1  and  _3
REMARK    2  A    between atoms: _3  and  _4
REMARK    3  A    between atoms: _7  and  _9
REMARK    4  A    between atoms: _9  and  _10
REMARK    5  A    between atoms: _9  and  _12
REMARK    6  A    between atoms: _12  and  _13
REMARK    7  A    between atoms: _16  and  _18
REMARK    8  A    between atoms: _18  and  _19
REMARK    9  A    between atoms: _22  and  _24
REMARK   10  A    between atoms: _24  and  _25
REMARK   11  A    between atoms: _24  and  _27
REMARK   12  A    between atoms: _27  and  _28
REMARK   13  A    between atoms: _30  and  _32
REMARK   14  A    between atoms: _32  and  _33
REMARK   15  A    between atoms: _32  and  _35
REMARK   16  A    between atoms: _35  and  _36
REMARK   17  A    between atoms: _41  and  _42
REMARK   18  A    between atoms: _44  and  _46
REMARK   19  A    between atoms: _46  and  _47
REMARK   20  A    between atoms: _46  and  _49
REMARK   21  A    between atoms: _49  and  _50
REMARK   22  A    between atoms: _50  and  _51
REMARK   23  A    between atoms: _56  and  _58
REMARK   24  A    between atoms: _58  and  _59
REMARK   25  A    between atoms: _58  and  _61
REMARK   26  A    between atoms: _61  and  _62
REMARK   27  A    between atoms: _62  and  _63
REMARK   28  A    between atoms: _63  and  _64
REMARK   29  A    between atoms: _73  and  _75
REMARK   30  A    between atoms: _75  and  _76
REMARK   31  A    between atoms: _75  and  _78
REMARK   32  A    between atoms: _78  and  _79
REMARK   33  A    between atoms: _84  and  _86
REMARK   34  A    between atoms: _86  and  _87
REMARK   35  A    between atoms: _86  and  _89
REMARK   36  A    between atoms: _89  and  _90
REMARK   37  A    between atoms: _100  and  _102
REMARK   38  A    between atoms: _102  and  _103
REMARK   39  A    between atoms: _102  and  _105
REMARK   40  A    between atoms: _105  and  _106
REMARK   41  A    between atoms: _111  and  _113
REMARK   42  A    between atoms: _113  and  _114
REMARK   43  A    between atoms: _113  and  _116
REMARK   44  A    between atoms: _116  and  _117
REMARK   45  A    between atoms: _117  and  _118
REMARK   46  A    between atoms: _121  and  _123
REMARK   47  A    between atoms: _123  and  _124
REMARK   48  A    between atoms: _123  and  _126
REMARK   49  A    between atoms: _129  and  _131
REMARK   50  A    between atoms: _131  and  _132
REMARK   51  A    between atoms: _131  and  _134
REMARK   52  A    between atoms: _134  and  _135
REMARK   53  A    between atoms: _140  and  _142
REMARK   54  A    between atoms: _142  and  _143
REMARK   55  A    between atoms: _142  and  _145
REMARK   56  A    between atoms: _148  and  _150
REMARK   57  A    between atoms: _150  and  _151
REMARK   58  A    between atoms: _150  and  _153
REMARK   59  A    between atoms: _153  and  _154
REMARK   60  A    between atoms: _160  and  _162
REMARK   61  A    between atoms: _162  and  _163
REMARK   62  A    between atoms: _162  and  _165
REMARK   63  A    between atoms: _165  and  _166
REMARK   64  A    between atoms: _171  and  _173
REMARK   65  A    between atoms: _173  and  _174
REMARK   66  A    between atoms: _173  and  _176
REMARK   67  A    between atoms: _176  and  _177
REMARK   68  A    between atoms: _182  and  _184
REMARK   69  A    between atoms: _184  and  _185
REMARK   70  A    between atoms: _184  and  _187
REMARK   71  A    between atoms: _187  and  _188
REMARK   72  A    between atoms: _193  and  _195
REMARK   73  A    between atoms: _195  and  _196
REMARK   74  A    between atoms: _195  and  _198
REMARK   75  A    between atoms: _198  and  _199
REMARK   76  A    between atoms: _204  and  _205
REMARK   77  A    between atoms: _207  and  _209
REMARK   78  A    between atoms: _209  and  _210
REMARK   79  A    between atoms: _209  and  _212
REMARK   80  A    between atoms: _212  and  _213
REMARK   81  A    between atoms: _218  and  _219
REMARK   82  A    between atoms: _221  and  _223
REMARK   83  A    between atoms: _223  and  _224
REMARK   84  A    between atoms: _223  and  _226
REMARK   85  A    between atoms: _226  and  _227
REMARK   86  A    between atoms: _227  and  _228
REMARK   87  A    between atoms: _230  and  _232
REMARK   88  A    between atoms: _232  and  _233
REMARK   89  A    between atoms: _232  and  _235
REMARK   90  A    between atoms: _235  and  _236
REMARK   91  A    between atoms: _246  and  _248
REMARK   92  A    between atoms: _248  and  _249
REMARK   93  A    between atoms: _248  and  _251
REMARK   94  A    between atoms: _251  and  _252
REMARK   95  A    between atoms: _255  and  _257
REMARK   96  A    between atoms: _257  and  _258
REMARK   97  A    between atoms: _257  and  _260
REMARK   98  A    between atoms: _260  and  _261
REMARK   99  A    between atoms: _261  and  _262
REMARK  100  A    between atoms: _265  and  _267
REMARK  101  A    between atoms: _267  and  _268
REMARK  102  A    between atoms: _267  and  _270
REMARK  103  A    between atoms: _270  and  _271
REMARK  104  A    between atoms: _276  and  _278
REMARK  105  A    between atoms: _278  and  _279
REMARK  106  A    between atoms: _281  and  _283
REMARK  107  A    between atoms: _283  and  _284
REMARK  108  A    between atoms: _287  and  _289
REMARK  109  A    between atoms: _289  and  _290
REMARK  110  A    between atoms: _293  and  _295
REMARK  111  A    between atoms: _295  and  _296
REMARK  112  A    between atoms: _295  and  _298
REMARK  113  A    between atoms: _298  and  _299
REMARK  114  A    between atoms: _309  and  _311
REMARK  115  A    between atoms: _311  and  _312
REMARK  116  A    between atoms: _311  and  _314
REMARK  117  A    between atoms: _314  and  _315
REMARK  118  A    between atoms: _317  and  _319
REMARK  119  A    between atoms: _319  and  _320
REMARK  120  A    between atoms: _319  and  _322
REMARK  121  A    between atoms: _322  and  _323
REMARK  122  A    between atoms: _328  and  _330
REMARK  123  A    between atoms: _330  and  _331
REMARK  124  A    between atoms: _330  and  _333
REMARK  125  A    between atoms: _333  and  _334
REMARK  126  A    between atoms: _340  and  _342
REMARK  127  A    between atoms: _342  and  _343
REMARK  128  A    between atoms: _342  and  _345
REMARK  129  A    between atoms: _345  and  _346
REMARK  130  A    between atoms: _346  and  _347
REMARK  131  A    between atoms: _350  and  _352
REMARK  132  A    between atoms: _352  and  _353
REMARK  133  A    between atoms: _352  and  _355
REMARK  134  A    between atoms: _355  and  _356
REMARK  135  A    between atoms: _366  and  _368
REMARK  136  A    between atoms: _368  and  _369
REMARK  137  A    between atoms: _368  and  _371
REMARK  138  A    between atoms: _371  and  _372
REMARK  139  A    between atoms: _372  and  _373
REMARK  140  A    between atoms: _376  and  _378
REMARK  141  A    between atoms: _378  and  _379
REMARK  142  A    between atoms: _378  and  _381
REMARK  143  A    between atoms: _381  and  _382
REMARK  144  A    between atoms: _382  and  _383
REMARK  145  A    between atoms: _383  and  _384
REMARK  146  A    between atoms: _384  and  _385
REMARK  147  A    between atoms: _389  and  _391
REMARK  148  A    between atoms: _391  and  _392
REMARK  149  A    between atoms: _391  and  _394
REMARK  150  A    between atoms: _394  and  _395
REMARK                            x       y       z     vdW  Elec       q    Type
REMARK                         _______ _______ _______ _____ _____    ______ ____
ROOT
ATOM      1  O   HOH     1      -3.508  10.774   3.805  0.00  0.00    +0.000 OA
ENDROOT
TORSDOF 0
REMARK  Name = ../refined-set-2016/1oif/1oif_pocket.pdb
REMARK  150 active torsions:
REMARK  status: ('A' for Active; 'I' for Inactive)
REMARK    1  A    between atoms: _1  and  _3
REMARK    2  A    between atoms: _3  and  _4
REMARK    3  A    between atoms: _7  and  _9
REMARK    4  A    between atoms: _9  and  _10
REMARK    5  A    between atoms: _9  and  _12
REMARK    6  A    between atoms: _12  and  _13
REMARK    7  A    between atoms: _16  and  _18
REMARK    8  A    between atoms: _18  and  _19
REMARK    9  A    between atoms: _22  and  _24
REMARK   10  A    between atoms: _24  and  _25
REMARK   11  A    between atoms: _24  and  _27
REMARK   12  A    between atoms: _27  and  _28
REMARK   13  A    between atoms: _30  and  _32
REMARK   14  A    between atoms: _32  and  _33
REMARK   15  A    between atoms: _32  and  _35
REMARK   16  A    between atoms: _35  and  _36
REMARK   17  A    between atoms: _41  and  _42
REMARK   18  A    between atoms: _44  and  _46
REMARK   19  A    between atoms: _46  and  _47
REMARK   20  A    between atoms: _46  and  _49
REMARK   21  A    between atoms: _49  and  _50
REMARK   22  A    between atoms: _50  and  _51
REMARK   23  A    between atoms: _56  and  _58
REMARK   24  A    between atoms: _58  and  _59
REMARK   25  A    between atoms: _58  and  _61
REMARK   26  A    between atoms: _61  and  _62
REMARK   27  A    between atoms: _62  and  _63
REMARK   28  A    between atoms: _63  and  _64
REMARK   29  A    between atoms: _73  and  _75
REMARK   30  A    between atoms: _75  and  _76
REMARK   31  A    between atoms: _75  and  _78
REMARK   32  A    between atoms: _78  and  _79
REMARK   33  A    between atoms: _84  and  _86
REMARK   34  A    between atoms: _86  and  _87
REMARK   35  A    between atoms: _86  and  _89
REMARK   36  A    between atoms: _89  and  _90
REMARK   37  A    between atoms: _100  and  _102
REMARK   38  A    between atoms: _102  and  _103
REMARK   39  A    between atoms: _102  and  _105
REMARK   40  A    between atoms: _105  and  _106
REMARK   41  A    between atoms: _111  and  _113
REMARK   42  A    between atoms: _113  and  _114
REMARK   43  A    between atoms: _113  and  _116
REMARK   44  A    between atoms: _116  and  _117
REMARK   45  A    between atoms: _117  and  _118
REMARK   46  A    between atoms: _121  and  _123
REMARK   47  A    between atoms: _123  and  _124
REMARK   48  A    between atoms: _123  and  _126
REMARK   49  A    between atoms: _129  and  _131
REMARK   50  A    between atoms: _131  and  _132
REMARK   51  A    between atoms: _131  and  _134
REMARK   52  A    between atoms: _134  and  _135
REMARK   53  A    between atoms: _140  and  _142
REMARK   54  A    between atoms: _142  and  _143
REMARK   55  A    between atoms: _142  and  _145
REMARK   56  A    between atoms: _148  and  _150
REMARK   57  A    between atoms: _150  and  _151
REMARK   58  A    between atoms: _150  and  _153
REMARK   59  A    between atoms: _153  and  _154
REMARK   60  A    between atoms: _160  and  _162
REMARK   61  A    between atoms: _162  and  _163
REMARK   62  A    between atoms: _162  and  _165
REMARK   63  A    between atoms: _165  and  _166
REMARK   64  A    between atoms: _171  and  _173
REMARK   65  A    between atoms: _173  and  _174
REMARK   66  A    between atoms: _173  and  _176
REMARK   67  A    between atoms: _176  and  _177
REMARK   68  A    between atoms: _182  and  _184
REMARK   69  A    between atoms: _184  and  _185
REMARK   70  A    between atoms: _184  and  _187
REMARK   71  A    between atoms: _187  and  _188
REMARK   72  A    between atoms: _193  and  _195
REMARK   73  A    between atoms: _195  and  _196
REMARK   74  A    between atoms: _195  and  _198
REMARK   75  A    between atoms: _198  and  _199
REMARK   76  A    between atoms: _204  and  _205
REMARK   77  A    between atoms: _207  and  _209
REMARK   78  A    between atoms: _209  and  _210
REMARK   79  A    between atoms: _209  and  _212
REMARK   80  A    between atoms: _212  and  _213
REMARK   81  A    between atoms: _218  and  _219
REMARK   82  A    between atoms: _221  and  _223
REMARK   83  A    between atoms: _223  and  _224
REMARK   84  A    between atoms: _223  and  _226
REMARK   85  A    between atoms: _226  and  _227
REMARK   86  A    between atoms: _227  and  _228
REMARK   87  A    between atoms: _230  and  _232
REMARK   88  A    between atoms: _232  and  _233
REMARK   89  A    between atoms: _232  and  _235
REMARK   90  A    between atoms: _235  and  _236
REMARK   91  A    between atoms: _246  and  _248
REMARK   92  A    between atoms: _248  and  _249
REMARK   93  A    between atoms: _248  and  _251
REMARK   94  A    between atoms: _251  and  _252
REMARK   95  A    between atoms: _255  and  _257
REMARK   96  A    between atoms: _257  and  _258
REMARK   97  A    between atoms: _257  and  _260
REMARK   98  A    between atoms: _260  and  _261
REMARK   99  A    between atoms: _261  and  _262
REMARK  100  A    between atoms: _265  and  _267
REMARK  101  A    between atoms: _267  and  _268
REMARK  102  A    between atoms: _267  and  _270
REMARK  103  A    between atoms: _270  and  _271
REMARK  104  A    between atoms: _276  and  _278
REMARK  105  A    between atoms: _278  and  _279
REMARK  106  A    between atoms: _281  and  _283
REMARK  107  A    between atoms: _283  and  _284
REMARK  108  A    between atoms: _287  and  _289
REMARK  109  A    between atoms: _289  and  _290
REMARK  110  A    between atoms: _293  and  _295
REMARK  111  A    between atoms: _295  and  _296
REMARK  112  A    between atoms: _295  and  _298
REMARK  113  A    between atoms: _298  and  _299
REMARK  114  A    between atoms: _309  and  _311
REMARK  115  A    between atoms: _311  and  _312
REMARK  116  A    between atoms: _311  and  _314
REMARK  117  A    between atoms: _314  and  _315
REMARK  118  A    between atoms: _317  and  _319
REMARK  119  A    between atoms: _319  and  _320
REMARK  120  A    between atoms: _319  and  _322
REMARK  121  A    between atoms: _322  and  _323
REMARK  122  A    between atoms: _328  and  _330
REMARK  123  A    between atoms: _330  and  _331
REMARK  124  A    between atoms: _330  and  _333
REMARK  125  A    between atoms: _333  and  _334
REMARK  126  A    between atoms: _340  and  _342
REMARK  127  A    between atoms: _342  and  _343
REMARK  128  A    between atoms: _342  and  _345
REMARK  129  A    between atoms: _345  and  _346
REMARK  130  A    between atoms: _346  and  _347
REMARK  131  A    between atoms: _350  and  _352
REMARK  132  A    between atoms: _352  and  _353
REMARK  133  A    between atoms: _352  and  _355
REMARK  134  A    between atoms: _355  and  _356
REMARK  135  A    between atoms: _366  and  _368
REMARK  136  A    between atoms: _368  and  _369
REMARK  137  A    between atoms: _368  and  _371
REMARK  138  A    between atoms: _371  and  _372
REMARK  139  A    between atoms: _372  and  _373
REMARK  140  A    between atoms: _376  and  _378
REMARK  141  A    between atoms: _378  and  _379
REMARK  142  A    between atoms: _378  and  _381
REMARK  143  A    between atoms: _381  and  _382
REMARK  144  A    between atoms: _382  and  _383
REMARK  145  A    between atoms: _383  and  _384
REMARK  146  A    between atoms: _384  and  _385
REMARK  147  A    between atoms: _389  and  _391
REMARK  148  A    between atoms: _391  and  _392
REMARK  149  A    between atoms: _391  and  _394
REMARK  150  A    between atoms: _394  and  _395
REMARK                            x       y       z     vdW  Elec       q    Type
REMARK                         _______ _______ _______ _____ _____    ______ ____
ROOT
ATOM      1  O   HOH     1      -0.190   5.052   7.077  0.00  0.00    +0.000 OA
ENDROOT
TORSDOF 0
REMARK  Name = ../refined-set-2016/1oif/1oif_pocket.pdb
REMARK  150 active torsions:
REMARK  status: ('A' for Active; 'I' for Inactive)
REMARK    1  A    between atoms: _1  and  _3
REMARK    2  A    between atoms: _3  and  _4
REMARK    3  A    between atoms: _7  and  _9
REMARK    4  A    between atoms: _9  and  _10
REMARK    5  A    between atoms: _9  and  _12
REMARK    6  A    between atoms: _12  and  _13
REMARK    7  A    between atoms: _16  and  _18
REMARK    8  A    between atoms: _18  and  _19
REMARK    9  A    between atoms: _22  and  _24
REMARK   10  A    between atoms: _24  and  _25
REMARK   11  A    between atoms: _24  and  _27
REMARK   12  A    between atoms: _27  and  _28
REMARK   13  A    between atoms: _30  and  _32
REMARK   14  A    between atoms: _32  and  _33
REMARK   15  A    between atoms: _32  and  _35
REMARK   16  A    between atoms: _35  and  _36
REMARK   17  A    between atoms: _41  and  _42
REMARK   18  A    between atoms: _44  and  _46
REMARK   19  A    between atoms: _46  and  _47
REMARK   20  A    between atoms: _46  and  _49
REMARK   21  A    between atoms: _49  and  _50
REMARK   22  A    between atoms: _50  and  _51
REMARK   23  A    between atoms: _56  and  _58
REMARK   24  A    between atoms: _58  and  _59
REMARK   25  A    between atoms: _58  and  _61
REMARK   26  A    between atoms: _61  and  _62
REMARK   27  A    between atoms: _62  and  _63
REMARK   28  A    between atoms: _63  and  _64
REMARK   29  A    between atoms: _73  and  _75
REMARK   30  A    between atoms: _75  and  _76
REMARK   31  A    between atoms: _75  and  _78
REMARK   32  A    between atoms: _78  and  _79
REMARK   33  A    between atoms: _84  and  _86
REMARK   34  A    between atoms: _86  and  _87
REMARK   35  A    between atoms: _86  and  _89
REMARK   36  A    between atoms: _89  and  _90
REMARK   37  A    between atoms: _100  and  _102
REMARK   38  A    between atoms: _102  and  _103
REMARK   39  A    between atoms: _102  and  _105
REMARK   40  A    between atoms: _105  and  _106
REMARK   41  A    between atoms: _111  and  _113
REMARK   42  A    between atoms: _113  and  _114
REMARK   43  A    between atoms: _113  and  _116
REMARK   44  A    between atoms: _116  and  _117
REMARK   45  A    between atoms: _117  and  _118
REMARK   46  A    between atoms: _121  and  _123
REMARK   47  A    between atoms: _123  and  _124
REMARK   48  A    between atoms: _123  and  _126
REMARK   49  A    between atoms: _129  and  _131
REMARK   50  A    between atoms: _131  and  _132
REMARK   51  A    between atoms: _131  and  _134
REMARK   52  A    between atoms: _134  and  _135
REMARK   53  A    between atoms: _140  and  _142
REMARK   54  A    between atoms: _142  and  _143
REMARK   55  A    between atoms: _142  and  _145
REMARK   56  A    between atoms: _148  and  _150
REMARK   57  A    between atoms: _150  and  _151
REMARK   58  A    between atoms: _150  and  _153
REMARK   59  A    between atoms: _153  and  _154
REMARK   60  A    between atoms: _160  and  _162
REMARK   61  A    between atoms: _162  and  _163
REMARK   62  A    between atoms: _162  and  _165
REMARK   63  A    between atoms: _165  and  _166
REMARK   64  A    between atoms: _171  and  _173
REMARK   65  A    between atoms: _173  and  _174
REMARK   66  A    between atoms: _173  and  _176
REMARK   67  A    between atoms: _176  and  _177
REMARK   68  A    between atoms: _182  and  _184
REMARK   69  A    between atoms: _184  and  _185
REMARK   70  A    between atoms: _184  and  _187
REMARK   71  A    between atoms: _187  and  _188
REMARK   72  A    between atoms: _193  and  _195
REMARK   73  A    between atoms: _195  and  _196
REMARK   74  A    between atoms: _195  and  _198
REMARK   75  A    between atoms: _198  and  _199
REMARK   76  A    between atoms: _204  and  _205
REMARK   77  A    between atoms: _207  and  _209
REMARK   78  A    between atoms: _209  and  _210
REMARK   79  A    between atoms: _209  and  _212
REMARK   80  A    between atoms: _212  and  _213
REMARK   81  A    between atoms: _218  and  _219
REMARK   82  A    between atoms: _221  and  _223
REMARK   83  A    between atoms: _223  and  _224
REMARK   84  A    between atoms: _223  and  _226
REMARK   85  A    between atoms: _226  and  _227
REMARK   86  A    between atoms: _227  and  _228
REMARK   87  A    between atoms: _230  and  _232
REMARK   88  A    between atoms: _232  and  _233
REMARK   89  A    between atoms: _232  and  _235
REMARK   90  A    between atoms: _235  and  _236
REMARK   91  A    between atoms: _246  and  _248
REMARK   92  A    between atoms: _248  and  _249
REMARK   93  A    between atoms: _248  and  _251
REMARK   94  A    between atoms: _251  and  _252
REMARK   95  A    between atoms: _255  and  _257
REMARK   96  A    between atoms: _257  and  _258
REMARK   97  A    between atoms: _257  and  _260
REMARK   98  A    between atoms: _260  and  _261
REMARK   99  A    between atoms: _261  and  _262
REMARK  100  A    between atoms: _265  and  _267
REMARK  101  A    between atoms: _267  and  _268
REMARK  102  A    between atoms: _267  and  _270
REMARK  103  A    between atoms: _270  and  _271
REMARK  104  A    between atoms: _276  and  _278
REMARK  105  A    between atoms: _278  and  _279
REMARK  106  A    between atoms: _281  and  _283
REMARK  107  A    between atoms: _283  and  _284
REMARK  108  A    between atoms: _287  and  _289
REMARK  109  A    between atoms: _289  and  _290
REMARK  110  A    between atoms: _293  and  _295
REMARK  111  A    between atoms: _295  and  _296
REMARK  112  A    between atoms: _295  and  _298
REMARK  113  A    between atoms: _298  and  _299
REMARK  114  A    between atoms: _309  and  _311
REMARK  115  A    between atoms: _311  and  _312
REMARK  116  A    between atoms: _311  and  _314
REMARK  117  A    between atoms: _314  and  _315
REMARK  118  A    between atoms: _317  and  _319
REMARK  119  A    between atoms: _319  and  _320
REMARK  120  A    between atoms: _319  and  _322
REMARK  121  A    between atoms: _322  and  _323
REMARK  122  A    between atoms: _328  and  _330
REMARK  123  A    between atoms: _330  and  _331
REMARK  124  A    between atoms: _330  and  _333
REMARK  125  A    between atoms: _333  and  _334
REMARK  126  A    between atoms: _340  and  _342
REMARK  127  A    between atoms: _342  and  _343
REMARK  128  A    between atoms: _342  and  _345
REMARK  129  A    between atoms: _345  and  _346
REMARK  130  A    between atoms: _346  and  _347
REMARK  131  A    between atoms: _350  and  _352
REMARK  132  A    between atoms: _352  and  _353
REMARK  133  A    between atoms: _352  and  _355
REMARK  134  A    between atoms: _355  and  _356
REMARK  135  A    between atoms: _366  and  _368
REMARK  136  A    between atoms: _368  and  _369
REMARK  137  A    between atoms: _368  and  _371
REMARK  138  A    between atoms: _371  and  _372
REMARK  139  A    between atoms: _372  and  _373
REMARK  140  A    between atoms: _376  and  _378
REMARK  141  A    between atoms: _378  and  _379
REMARK  142  A    between atoms: _378  and  _381
REMARK  143  A    between atoms: _381  and  _382
REMARK  144  A    between atoms: _382  and  _383
REMARK  145  A    between atoms: _383  and  _384
REMARK  146  A    between atoms: _384  and  _385
REMARK  147  A    between atoms: _389  and  _391
REMARK  148  A    between atoms: _391  and  _392
REMARK  149  A    between atoms: _391  and  _394
REMARK  150  A    between atoms: _394  and  _395
REMARK                            x       y       z     vdW  Elec       q    Type
REMARK                         _______ _______ _______ _____ _____    ______ ____
ROOT
ATOM      1  O   HOH     1      -5.386  10.222   1.772  0.00  0.00    +0.000 OA
ENDROOT
TORSDOF 0
