REMARK  Name = ../refined-set-2016/3ivg/3ivg_pocket.pdb
REMARK  219 active torsions:
REMARK  status: ('A' for Active; 'I' for Inactive)
REMARK    1  A    between atoms: _1  and  _3
REMARK    2  A    between atoms: _3  and  _4
REMARK    3  A    between atoms: _3  and  _6
REMARK    4  A    between atoms: _6  and  _7
REMARK    5  A    between atoms: _10  and  _12
REMARK    6  A    between atoms: _12  and  _13
REMARK    7  A    between atoms: _12  and  _15
REMARK    8  A    between atoms: _19  and  _20
REMARK    9  A    between atoms: _25  and  _27
REMARK   10  A    between atoms: _27  and  _28
REMARK   11  A    between atoms: _27  and  _30
REMARK   12  A    between atoms: _30  and  _31
REMARK   13  A    between atoms: _34  and  _36
REMARK   14  A    between atoms: _36  and  _37
REMARK   15  A    between atoms: _36  and  _39
REMARK   16  A    between atoms: _39  and  _40
REMARK   17  A    between atoms: _40  and  _41
REMARK   18  A    between atoms: _43  and  _45
REMARK   19  A    between atoms: _45  and  _46
REMARK   20  A    between atoms: _48  and  _50
REMARK   21  A    between atoms: _50  and  _51
REMARK   22  A    between atoms: _54  and  _56
REMARK   23  A    between atoms: _56  and  _57
REMARK   24  A    between atoms: _56  and  _59
REMARK   25  A    between atoms: _59  and  _60
REMARK   26  A    between atoms: _63  and  _65
REMARK   27  A    between atoms: _65  and  _66
REMARK   28  A    between atoms: _65  and  _68
REMARK   29  A    between atoms: _68  and  _69
REMARK   30  A    between atoms: _74  and  _76
REMARK   31  A    between atoms: _76  and  _77
REMARK   32  A    between atoms: _76  and  _79
REMARK   33  A    between atoms: _79  and  _80
REMARK   34  A    between atoms: _80  and  _81
REMARK   35  A    between atoms: _84  and  _86
REMARK   36  A    between atoms: _86  and  _87
REMARK   37  A    between atoms: _89  and  _91
REMARK   38  A    between atoms: _91  and  _92
REMARK   39  A    between atoms: _91  and  _94
REMARK   40  A    between atoms: _94  and  _95
REMARK   41  A    between atoms: _100  and  _102
REMARK   42  A    between atoms: _102  and  _103
REMARK   43  A    between atoms: _102  and  _105
REMARK   44  A    between atoms: _105  and  _106
REMARK   45  A    between atoms: _109  and  _111
REMARK   46  A    between atoms: _111  and  _112
REMARK   47  A    between atoms: _115  and  _117
REMARK   48  A    between atoms: _117  and  _118
REMARK   49  A    between atoms: _117  and  _120
REMARK   50  A    between atoms: _120  and  _121
REMARK   51  A    between atoms: _124  and  _126
REMARK   52  A    between atoms: _126  and  _127
REMARK   53  A    between atoms: _126  and  _129
REMARK   54  A    between atoms: _132  and  _134
REMARK   55  A    between atoms: _134  and  _135
REMARK   56  A    between atoms: _138  and  _140
REMARK   57  A    between atoms: _140  and  _141
REMARK   58  A    between atoms: _140  and  _143
REMARK   59  A    between atoms: _146  and  _148
REMARK   60  A    between atoms: _148  and  _149
REMARK   61  A    between atoms: _148  and  _151
REMARK   62  A    between atoms: _151  and  _152
REMARK   63  A    between atoms: _154  and  _156
REMARK   64  A    between atoms: _156  and  _157
REMARK   65  A    between atoms: _156  and  _159
REMARK   66  A    between atoms: _159  and  _160
REMARK   67  A    between atoms: _163  and  _165
REMARK   68  A    between atoms: _165  and  _166
REMARK   69  A    between atoms: _165  and  _168
REMARK   70  A    between atoms: _168  and  _169
REMARK   71  A    between atoms: _175  and  _177
REMARK   72  A    between atoms: _177  and  _178
REMARK   73  A    between atoms: _177  and  _180
REMARK   74  A    between atoms: _183  and  _185
REMARK   75  A    between atoms: _185  and  _186
REMARK   76  A    between atoms: _185  and  _188
REMARK   77  A    between atoms: _188  and  _189
REMARK   78  A    between atoms: _194  and  _196
REMARK   79  A    between atoms: _196  and  _197
REMARK   80  A    between atoms: _196  and  _199
REMARK   81  A    between atoms: _199  and  _200
REMARK   82  A    between atoms: _200  and  _201
REMARK   83  A    between atoms: _206  and  _208
REMARK   84  A    between atoms: _208  and  _209
REMARK   85  A    between atoms: _208  and  _211
REMARK   86  A    between atoms: _211  and  _212
REMARK   87  A    between atoms: _212  and  _213
REMARK   88  A    between atoms: _215  and  _217
REMARK   89  A    between atoms: _217  and  _218
REMARK   90  A    between atoms: _217  and  _220
REMARK   91  A    between atoms: _220  and  _221
REMARK   92  A    between atoms: _226  and  _228
REMARK   93  A    between atoms: _228  and  _229
REMARK   94  A    between atoms: _228  and  _231
REMARK   95  A    between atoms: _231  and  _232
REMARK   96  A    between atoms: _238  and  _240
REMARK   97  A    between atoms: _240  and  _241
REMARK   98  A    between atoms: _243  and  _245
REMARK   99  A    between atoms: _245  and  _246
REMARK  100  A    between atoms: _245  and  _248
REMARK  101  A    between atoms: _251  and  _253
REMARK  102  A    between atoms: _253  and  _254
REMARK  103  A    between atoms: _253  and  _256
REMARK  104  A    between atoms: _256  and  _257
REMARK  105  A    between atoms: _260  and  _262
REMARK  106  A    between atoms: _262  and  _263
REMARK  107  A    between atoms: _262  and  _265
REMARK  108  A    between atoms: _265  and  _266
REMARK  109  A    between atoms: _269  and  _271
REMARK  110  A    between atoms: _271  and  _272
REMARK  111  A    between atoms: _271  and  _274
REMARK  112  A    between atoms: _277  and  _279
REMARK  113  A    between atoms: _279  and  _280
REMARK  114  A    between atoms: _279  and  _282
REMARK  115  A    between atoms: _285  and  _287
REMARK  116  A    between atoms: _287  and  _288
REMARK  117  A    between atoms: _287  and  _290
REMARK  118  A    between atoms: _290  and  _291
REMARK  119  A    between atoms: _294  and  _296
REMARK  120  A    between atoms: _296  and  _297
REMARK  121  A    between atoms: _296  and  _299
REMARK  122  A    between atoms: _299  and  _300
REMARK  123  A    between atoms: _303  and  _305
REMARK  124  A    between atoms: _305  and  _306
REMARK  125  A    between atoms: _305  and  _308
REMARK  126  A    between atoms: _308  and  _309
REMARK  127  A    between atoms: _315  and  _317
REMARK  128  A    between atoms: _317  and  _318
REMARK  129  A    between atoms: _317  and  _320
REMARK  130  A    between atoms: _320  and  _321
REMARK  131  A    between atoms: _327  and  _329
REMARK  132  A    between atoms: _329  and  _330
REMARK  133  A    between atoms: _332  and  _334
REMARK  134  A    between atoms: _334  and  _335
REMARK  135  A    between atoms: _334  and  _337
REMARK  136  A    between atoms: _337  and  _338
REMARK  137  A    between atoms: _338  and  _339
REMARK  138  A    between atoms: _342  and  _344
REMARK  139  A    between atoms: _344  and  _345
REMARK  140  A    between atoms: _344  and  _347
REMARK  141  A    between atoms: _347  and  _348
REMARK  142  A    between atoms: _348  and  _349
REMARK  143  A    between atoms: _349  and  _350
REMARK  144  A    between atoms: _350  and  _351
REMARK  145  A    between atoms: _355  and  _357
REMARK  146  A    between atoms: _357  and  _358
REMARK  147  A    between atoms: _357  and  _360
REMARK  148  A    between atoms: _360  and  _361
REMARK  149  A    between atoms: _364  and  _366
REMARK  150  A    between atoms: _366  and  _367
REMARK  151  A    between atoms: _366  and  _369
REMARK  152  A    between atoms: _369  and  _370
REMARK  153  A    between atoms: _370  and  _371
REMARK  154  A    between atoms: _376  and  _378
REMARK  155  A    between atoms: _378  and  _379
REMARK  156  A    between atoms: _378  and  _381
REMARK  157  A    between atoms: _381  and  _382
REMARK  158  A    between atoms: _385  and  _387
REMARK  159  A    between atoms: _387  and  _388
REMARK  160  A    between atoms: _390  and  _392
REMARK  161  A    between atoms: _392  and  _393
REMARK  162  A    between atoms: _392  and  _395
REMARK  163  A    between atoms: _399  and  _400
REMARK  164  A    between atoms: _405  and  _407
REMARK  165  A    between atoms: _407  and  _408
REMARK  166  A    between atoms: _407  and  _410
REMARK  167  A    between atoms: _410  and  _411
REMARK  168  A    between atoms: _414  and  _416
REMARK  169  A    between atoms: _416  and  _417
REMARK  170  A    between atoms: _416  and  _419
REMARK  171  A    between atoms: _422  and  _424
REMARK  172  A    between atoms: _424  and  _425
REMARK  173  A    between atoms: _424  and  _427
REMARK  174  A    between atoms: _427  and  _428
REMARK  175  A    between atoms: _428  and  _429
REMARK  176  A    between atoms: _429  and  _430
REMARK  177  A    between atoms: _439  and  _441
REMARK  178  A    between atoms: _441  and  _442
REMARK  179  A    between atoms: _441  and  _444
REMARK  180  A    between atoms: _444  and  _445
REMARK  181  A    between atoms: _448  and  _450
REMARK  182  A    between atoms: _450  and  _451
REMARK  183  A    between atoms: _454  and  _456
REMARK  184  A    between atoms: _456  and  _457
REMARK  185  A    between atoms: _456  and  _459
REMARK  186  A    between atoms: _459  and  _460
REMARK  187  A    between atoms: _460  and  _461
REMARK  188  A    between atoms: _463  and  _465
REMARK  189  A    between atoms: _465  and  _466
REMARK  190  A    between atoms: _465  and  _468
REMARK  191  A    between atoms: _468  and  _469
REMARK  192  A    between atoms: _471  and  _473
REMARK  193  A    between atoms: _473  and  _474
REMARK  194  A    between atoms: _473  and  _476
REMARK  195  A    between atoms: _476  and  _477
REMARK  196  A    between atoms: _479  and  _481
REMARK  197  A    between atoms: _481  and  _482
REMARK  198  A    between atoms: _481  and  _484
REMARK  199  A    between atoms: _484  and  _485
REMARK  200  A    between atoms: _485  and  _486
REMARK  201  A    between atoms: _486  and  _487
REMARK  202  A    between atoms: _496  and  _498
REMARK  203  A    between atoms: _498  and  _499
REMARK  204  A    between atoms: _498  and  _501
REMARK  205  A    between atoms: _501  and  _502
REMARK  206  A    between atoms: _507  and  _509
REMARK  207  A    between atoms: _509  and  _510
REMARK  208  A    between atoms: _509  and  _512
REMARK  209  A    between atoms: _512  and  _513
REMARK  210  A    between atoms: _513  and  _514
REMARK  211  A    between atoms: _514  and  _515
REMARK  212  A    between atoms: _524  and  _526
REMARK  213  A    between atoms: _526  and  _527
REMARK  214  A    between atoms: _526  and  _529
REMARK  215  A    between atoms: _529  and  _530
REMARK  216  A    between atoms: _533  and  _535
REMARK  217  A    between atoms: _535  and  _536
REMARK  218  A    between atoms: _535  and  _538
REMARK  219  A    between atoms: _538  and  _539
REMARK                            x       y       z     vdW  Elec       q    Type
REMARK                         _______ _______ _______ _____ _____    ______ ____
ROOT
ATOM      1  CA  HIS A   9      -5.934 -15.446  39.742  0.00  0.00    +0.155 C 
ENDROOT
BRANCH   1   3
ATOM      2  C   LEU A   8      -6.029 -16.428  37.518  0.00  0.00    +0.241 C 
ATOM      3  N   HIS A   9      -5.683 -15.427  38.318  0.00  0.00    -0.297 N 
ATOM      4  H   HIS A   9      -5.213 -14.597  37.905  0.00  0.00    +0.150 HD
ATOM      5  O   LEU A   8      -6.505 -17.498  37.930  0.00  0.00    -0.273 OA
BRANCH   2   6
ATOM      6  CA  LEU A   8      -5.827 -16.195  36.025  0.00  0.00    +0.149 C 
BRANCH   6   9
ATOM      7  C   ALA A   7      -4.252 -17.968  35.464  0.00  0.00    +0.241 C 
ATOM      8  O   ALA A   7      -3.442 -17.566  36.312  0.00  0.00    -0.273 OA
ATOM      9  N   LEU A   8      -5.443 -17.414  35.293  0.00  0.00    -0.297 N 
ATOM     10  H   LEU A   8      -6.118 -17.847  34.631  0.00  0.00    +0.150 HD
BRANCH   7  11
ATOM     11  CA  ALA A   7      -3.905 -19.110  34.519  0.00  0.00    +0.149 C 
ATOM     12  CB  ALA A   7      -2.545 -19.672  34.838  0.00  0.00    +0.031 C 
BRANCH  11  15
ATOM     13  C   GLY A   6      -3.320 -17.471  32.779  0.00  0.00    +0.243 C 
ATOM     14  O   GLY A   6      -2.525 -16.867  33.516  0.00  0.00    -0.273 OA
ATOM     15  N   ALA A   7      -3.939 -18.602  33.148  0.00  0.00    -0.297 N 
ATOM     16  H   ALA A   7      -4.465 -19.140  32.430  0.00  0.00    +0.150 HD
BRANCH  13  17
ATOM     17  CA  GLY A   6      -3.617 -16.944  31.375  0.00  0.00    +0.176 C 
BRANCH  17  19
ATOM     18  C   MET A   5      -1.414 -16.085  30.771  0.00  0.00    +0.241 C 
ATOM     19  N   GLY A   6      -2.715 -15.849  30.959  0.00  0.00    -0.295 N 
ATOM     20  H   GLY A   6      -3.095 -14.892  30.812  0.00  0.00    +0.150 HD
ATOM     21  O   MET A   5      -0.932 -17.208  30.874  0.00  0.00    -0.273 OA
BRANCH  18  22
ATOM     22  CA  MET A   5      -0.524 -14.909  30.411  0.00  0.00    +0.149 C 
BRANCH  22  24
ATOM     23  C   THR A   4      -1.640 -12.822  30.223  0.00  0.00    +0.243 C 
ATOM     24  N   MET A   5      -1.026 -13.691  31.011  0.00  0.00    -0.297 N 
ATOM     25  H   MET A   5      -0.908 -13.505  32.027  0.00  0.00    +0.150 HD
ATOM     26  O   THR A   4      -1.628 -12.935  28.993  0.00  0.00    -0.273 OA
BRANCH  23  27
ATOM     27  CA  THR A   4      -2.343 -11.675  30.915  0.00  0.00    +0.176 C 
BRANCH  27  30
ATOM     28  C   PRO A   3      -2.325  -9.303  30.262  0.00  0.00    +0.241 C 
ATOM     29  O   PRO A   3      -1.894  -8.895  31.363  0.00  0.00    -0.273 OA
ATOM     30  N   THR A   4      -2.546 -10.586  29.968  0.00  0.00    -0.295 N 
ATOM     31  H   THR A   4      -2.881 -10.821  29.012  0.00  0.00    +0.150 HD
BRANCH  28  37
ATOM     32  C   VAL A   2      -4.720  -7.280  29.912  0.00  0.00    +0.244 C 
ATOM     33  N   PRO A   3      -3.412  -7.134  29.660  0.00  0.00    -0.272 N 
ATOM     34  CD  PRO A   3      -2.576  -5.927  29.724  0.00  0.00    +0.094 C 
ATOM     35  CG  PRO A   3      -1.658  -6.138  28.532  0.00  0.00    +0.024 C 
ATOM     36  CB  PRO A   3      -1.366  -7.682  28.597  0.00  0.00    +0.031 C 
ATOM     37  CA  PRO A   3      -2.657  -8.296  29.144  0.00  0.00    +0.152 C 
ATOM     38  O   VAL A   2      -5.315  -8.337  29.648  0.00  0.00    -0.273 OA
BRANCH  32  39
ATOM     39  CA  VAL A   2      -5.486  -6.060  30.469  0.00  0.00    +0.149 C 
BRANCH  39  42
ATOM     40  C   LEU A   1      -5.848  -4.044  29.082  0.00  0.00    +0.238 C 
ATOM     41  O   LEU A   1      -5.096  -3.335  29.773  0.00  0.00    -0.274 OA
ATOM     42  N   VAL A   2      -6.101  -5.329  29.338  0.00  0.00    -0.297 N 
ATOM     43  H   VAL A   2      -6.759  -5.840  28.715  0.00  0.00    +0.150 HD
BRANCH  40  44
ATOM     44  CA  LEU A   1      -6.454  -3.470  27.814  0.00  0.00    +0.145 C 
BRANCH  44  45
ATOM     45  N   LEU A   1      -7.139  -2.196  28.052  0.00  0.00    -0.238 NA
ATOM     46  H   LEU A   1      -6.592  -1.336  28.259  0.00  0.00    +0.142 HD
ENDBRANCH  44  45
BRANCH  44  47
ATOM     47  CB  LEU A   1      -5.327  -3.285  26.780  0.00  0.00    +0.026 C 
BRANCH  47  48
ATOM     48  CG  LEU A   1      -4.445  -4.502  26.494  0.00  0.00    +0.002 C 
ATOM     49  CD2 LEU A   1      -5.222  -5.651  25.862  0.00  0.00    +0.000 C 
ATOM     50  CD1 LEU A   1      -3.228  -4.107  25.613  0.00  0.00    +0.000 C 
ENDBRANCH  47  48
ENDBRANCH  44  47
ENDBRANCH  40  44
ENDBRANCH  39  42
BRANCH  39  51
ATOM     51  CB  VAL A   2      -6.557  -6.510  31.528  0.00  0.00    +0.027 C 
ATOM     52  CG2 VAL A   2      -5.917  -7.365  32.640  0.00  0.00    +0.002 C 
ATOM     53  CG1 VAL A   2      -7.313  -5.309  32.086  0.00  0.00    +0.002 C 
ENDBRANCH  39  51
ENDBRANCH  32  39
ENDBRANCH  28  37
ENDBRANCH  27  30
BRANCH  27  54
ATOM     54  CB  THR A   4      -3.667 -12.205  31.562  0.00  0.00    +0.137 C 
ATOM     55  CG2 THR A   4      -4.581 -11.091  32.039  0.00  0.00    +0.034 C 
BRANCH  54  56
ATOM     56  OG1 THR A   4      -4.368 -13.056  30.649  0.00  0.00    -0.382 OA
ATOM     57  HG1 THR A   4      -4.592 -12.546  29.830  0.00  0.00    +0.210 HD
ENDBRANCH  54  56
ENDBRANCH  27  54
ENDBRANCH  23  27
ENDBRANCH  22  24
BRANCH  22  58
ATOM     58  CB  MET A   5       0.905 -15.173  30.828  0.00  0.00    +0.041 C 
BRANCH  58  59
ATOM     59  CG  MET A   5       1.935 -14.367  30.066  0.00  0.00    +0.060 C 
BRANCH  59  60
ATOM     60  SD  MET A   5       3.571 -14.902  30.594  0.00  0.00    -0.139 S 
ATOM     61  CE  MET A   5       3.659 -14.100  32.204  0.00  0.00    +0.069 C 
ENDBRANCH  59  60
ENDBRANCH  58  59
ENDBRANCH  22  58
ENDBRANCH  18  22
ENDBRANCH  17  19
ENDBRANCH  13  17
ENDBRANCH  11  15
ENDBRANCH   7  11
ENDBRANCH   6   9
BRANCH   6  62
ATOM     62  CB  LEU A   8      -7.081 -15.563  35.413  0.00  0.00    +0.029 C 
BRANCH  62  63
ATOM     63  CG  LEU A   8      -6.998 -15.287  33.896  0.00  0.00    +0.002 C 
ATOM     64  CD2 LEU A   8      -5.966 -14.211  33.566  0.00  0.00    +0.000 C 
ATOM     65  CD1 LEU A   8      -8.347 -14.913  33.363  0.00  0.00    +0.000 C 
ENDBRANCH  62  63
ENDBRANCH   6  62
ENDBRANCH   2   6
ENDBRANCH   1   3
BRANCH   1  66
ATOM     66  C   HIS A   9      -6.411 -14.073  40.159  0.00  0.00    +0.241 C 
ATOM     67  N   GLU A  10      -6.485 -13.858  41.465  0.00  0.00    -0.297 N 
ATOM     68  H   GLU A  10      -6.084 -14.558  42.121  0.00  0.00    +0.150 HD
ATOM     69  O   HIS A   9      -6.649 -13.195  39.315  0.00  0.00    -0.273 OA
BRANCH  67  70
ATOM     70  CA  GLU A  10      -7.114 -12.665  41.994  0.00  0.00    +0.149 C 
BRANCH  70  71
ATOM     71  C   GLU A  10      -6.412 -11.379  41.620  0.00  0.00    +0.241 C 
ATOM     72  O   GLU A  10      -7.048 -10.330  41.545  0.00  0.00    -0.273 OA
ATOM     73  N   GLY A  11      -5.099 -11.464  41.433  0.00  0.00    -0.295 N 
ATOM     74  H   GLY A  11      -4.618 -12.363  41.636  0.00  0.00    +0.150 HD
BRANCH  73  75
ATOM     75  CA  GLY A  11      -4.309 -10.329  40.949  0.00  0.00    +0.176 C 
BRANCH  75  76
ATOM     76  C   GLY A  11      -4.788  -9.916  39.563  0.00  0.00    +0.243 C 
ATOM     77  O   GLY A  11      -5.007  -8.718  39.316  0.00  0.00    -0.273 OA
ATOM     78  N   HIS A  12      -4.968 -10.898  38.691  0.00  0.00    -0.297 N 
ATOM     79  H   HIS A  12      -4.703 -11.868  38.956  0.00  0.00    +0.150 HD
BRANCH  78  80
ATOM     80  CA  HIS A  12      -5.532 -10.647  37.363  0.00  0.00    +0.155 C 
BRANCH  80  81
ATOM     81  C   HIS A  12      -6.926 -10.019  37.465  0.00  0.00    +0.241 C 
ATOM     82  N   LEU A  13      -7.815 -10.527  38.327  0.00  0.00    -0.297 N 
ATOM     83  H   LEU A  13      -7.554 -11.359  38.893  0.00  0.00    +0.150 HD
ATOM     84  O   HIS A  12      -7.166  -9.043  36.824  0.00  0.00    -0.273 OA
BRANCH  82  85
ATOM     85  CA  LEU A  13      -9.160  -9.933  38.494  0.00  0.00    +0.149 C 
BRANCH  85  86
ATOM     86  C   LEU A  13      -9.176  -8.513  39.043  0.00  0.00    +0.241 C 
ATOM     87  N   ALA A  14      -8.223  -8.197  39.924  0.00  0.00    -0.297 N 
ATOM     88  H   ALA A  14      -7.620  -8.946  40.321  0.00  0.00    +0.150 HD
ATOM     89  O   LEU A  13     -10.046  -7.709  38.687  0.00  0.00    -0.273 OA
BRANCH  87  90
ATOM     90  CA  ALA A  14      -8.020  -6.816  40.334  0.00  0.00    +0.149 C 
ATOM     91  CB  ALA A  14      -6.926  -6.706  41.429  0.00  0.00    +0.031 C 
BRANCH  90  92
ATOM     92  C   ALA A  14      -7.726  -5.858  39.168  0.00  0.00    +0.241 C 
ATOM     93  O   ALA A  14      -8.295  -4.738  39.151  0.00  0.00    -0.273 OA
ATOM     94  N   LEU A  15      -6.886  -6.285  38.214  0.00  0.00    -0.297 N 
ATOM     95  H   LEU A  15      -6.385  -7.184  38.363  0.00  0.00    +0.150 HD
BRANCH  94  96
ATOM     96  CA  LEU A  15      -6.636  -5.537  36.954  0.00  0.00    +0.149 C 
BRANCH  96  97
ATOM     97  C   LEU A  15      -7.958  -5.363  36.173  0.00  0.00    +0.241 C 
ATOM     98  N   VAL A  16      -8.659  -6.463  35.981  0.00  0.00    -0.298 N 
ATOM     99  H   VAL A  16      -8.272  -7.381  36.280  0.00  0.00    +0.150 HD
ATOM    100  O   LEU A  15      -8.339  -4.270  35.805  0.00  0.00    -0.273 OA
BRANCH  98 101
ATOM    101  CA  VAL A  16      -9.983  -6.401  35.347  0.00  0.00    +0.137 C 
BRANCH 101 102
ATOM    102  CB  VAL A  16     -10.632  -7.743  35.262  0.00  0.00    +0.026 C 
ATOM    103  CG2 VAL A  16     -12.109  -7.571  34.828  0.00  0.00    +0.002 C 
ATOM    104  CG1 VAL A  16      -9.880  -8.601  34.278  0.00  0.00    +0.002 C 
ENDBRANCH 101 102
BRANCH 101 105
ATOM    105  C   VAL A  16     -10.899  -5.437  36.034  0.00  0.00    +0.227 C 
ATOM    106  O   VAL A  16     -11.557  -4.642  35.346  0.00  0.00    -0.286 OA
ENDBRANCH 101 105
ENDBRANCH  98 101
ENDBRANCH  96  97
BRANCH  96 107
ATOM    107  CB  LEU A  15      -5.633  -6.271  36.050  0.00  0.00    +0.029 C 
BRANCH 107 108
ATOM    108  CG  LEU A  15      -4.263  -6.642  36.660  0.00  0.00    +0.002 C 
ATOM    109  CD2 LEU A  15      -3.602  -5.397  37.188  0.00  0.00    +0.000 C 
ATOM    110  CD1 LEU A  15      -3.399  -7.337  35.629  0.00  0.00    +0.000 C 
ENDBRANCH 107 108
ENDBRANCH  96 107
ENDBRANCH  94  96
ENDBRANCH  90  92
ENDBRANCH  87  90
ENDBRANCH  85  86
BRANCH  85 111
ATOM    111  CB  LEU A  13     -10.066 -10.834  39.343  0.00  0.00    +0.029 C 
BRANCH 111 112
ATOM    112  CG  LEU A  13     -10.134 -12.307  38.904  0.00  0.00    +0.002 C 
ATOM    113  CD2 LEU A  13     -11.020 -13.084  39.912  0.00  0.00    +0.000 C 
ATOM    114  CD1 LEU A  13     -10.589 -12.521  37.450  0.00  0.00    +0.000 C 
ENDBRANCH 111 112
ENDBRANCH  85 111
ENDBRANCH  82  85
ENDBRANCH  80  81
BRANCH  80 115
ATOM    115  CB  HIS A  12      -5.531 -11.897  36.491  0.00  0.00    +0.076 C 
BRANCH 115 116
ATOM    116  CG  HIS A  12      -4.165 -12.430  36.182  0.00  0.00    +0.082 A 
ATOM    117  ND1 HIS A  12      -3.725 -13.665  36.624  0.00  0.00    -0.227 NA
ATOM    118  CE1 HIS A  12      -2.496 -13.877  36.181  0.00  0.00    +0.199 A 
ATOM    119  NE2 HIS A  12      -2.121 -12.823  35.472  0.00  0.00    -0.221 NA
ATOM    120  CD2 HIS A  12      -3.142 -11.906  35.462  0.00  0.00    +0.115 A 
ENDBRANCH 115 116
ENDBRANCH  80 115
ENDBRANCH  78  80
ENDBRANCH  75  76
ENDBRANCH  73  75
ENDBRANCH  70  71
BRANCH  70 121
ATOM    121  CB  GLU A  10      -7.249 -12.761  43.499  0.00  0.00    +0.041 C 
BRANCH 121 122
ATOM    122  CG  GLU A  10      -8.421 -13.637  43.903  0.00  0.00    +0.116 C 
BRANCH 122 123
ATOM    123  CD  GLU A  10      -9.744 -12.937  43.630  0.00  0.00    +0.365 C 
ATOM    124  OE2 GLU A  10      -9.835 -11.729  43.945  0.00  0.00    -0.246 OA
ATOM    125  OE1 GLU A  10     -10.680 -13.585  43.105  0.00  0.00    -0.246 OA
ENDBRANCH 122 123
ENDBRANCH 121 122
ENDBRANCH  70 121
ENDBRANCH  67  70
ENDBRANCH   1  66
BRANCH   1 126
ATOM    126  CB  HIS A   9      -4.661 -15.809  40.528  0.00  0.00    +0.076 C 
BRANCH 126 127
ATOM    127  CG  HIS A   9      -3.485 -14.936  40.223  0.00  0.00    +0.082 A 
ATOM    128  ND1 HIS A   9      -3.463 -13.581  40.492  0.00  0.00    -0.227 NA
ATOM    129  CE1 HIS A   9      -2.305 -13.077  40.105  0.00  0.00    +0.199 A 
ATOM    130  NE2 HIS A   9      -1.582 -14.052  39.588  0.00  0.00    -0.221 NA
ATOM    131  CD2 HIS A   9      -2.288 -15.226  39.660  0.00  0.00    +0.115 A 
ENDBRANCH 126 127
ENDBRANCH   1 126
TORSDOF 53
REMARK  Name = ../refined-set-2016/3ivg/3ivg_pocket.pdb
REMARK  219 active torsions:
REMARK  status: ('A' for Active; 'I' for Inactive)
REMARK    1  A    between atoms: _1  and  _3
REMARK    2  A    between atoms: _3  and  _4
REMARK    3  A    between atoms: _3  and  _6
REMARK    4  A    between atoms: _6  and  _7
REMARK    5  A    between atoms: _10  and  _12
REMARK    6  A    between atoms: _12  and  _13
REMARK    7  A    between atoms: _12  and  _15
REMARK    8  A    between atoms: _19  and  _20
REMARK    9  A    between atoms: _25  and  _27
REMARK   10  A    between atoms: _27  and  _28
REMARK   11  A    between atoms: _27  and  _30
REMARK   12  A    between atoms: _30  and  _31
REMARK   13  A    between atoms: _34  and  _36
REMARK   14  A    between atoms: _36  and  _37
REMARK   15  A    between atoms: _36  and  _39
REMARK   16  A    between atoms: _39  and  _40
REMARK   17  A    between atoms: _40  and  _41
REMARK   18  A    between atoms: _43  and  _45
REMARK   19  A    between atoms: _45  and  _46
REMARK   20  A    between atoms: _48  and  _50
REMARK   21  A    between atoms: _50  and  _51
REMARK   22  A    between atoms: _54  and  _56
REMARK   23  A    between atoms: _56  and  _57
REMARK   24  A    between atoms: _56  and  _59
REMARK   25  A    between atoms: _59  and  _60
REMARK   26  A    between atoms: _63  and  _65
REMARK   27  A    between atoms: _65  and  _66
REMARK   28  A    between atoms: _65  and  _68
REMARK   29  A    between atoms: _68  and  _69
REMARK   30  A    between atoms: _74  and  _76
REMARK   31  A    between atoms: _76  and  _77
REMARK   32  A    between atoms: _76  and  _79
REMARK   33  A    between atoms: _79  and  _80
REMARK   34  A    between atoms: _80  and  _81
REMARK   35  A    between atoms: _84  and  _86
REMARK   36  A    between atoms: _86  and  _87
REMARK   37  A    between atoms: _89  and  _91
REMARK   38  A    between atoms: _91  and  _92
REMARK   39  A    between atoms: _91  and  _94
REMARK   40  A    between atoms: _94  and  _95
REMARK   41  A    between atoms: _100  and  _102
REMARK   42  A    between atoms: _102  and  _103
REMARK   43  A    between atoms: _102  and  _105
REMARK   44  A    between atoms: _105  and  _106
REMARK   45  A    between atoms: _109  and  _111
REMARK   46  A    between atoms: _111  and  _112
REMARK   47  A    between atoms: _115  and  _117
REMARK   48  A    between atoms: _117  and  _118
REMARK   49  A    between atoms: _117  and  _120
REMARK   50  A    between atoms: _120  and  _121
REMARK   51  A    between atoms: _124  and  _126
REMARK   52  A    between atoms: _126  and  _127
REMARK   53  A    between atoms: _126  and  _129
REMARK   54  A    between atoms: _132  and  _134
REMARK   55  A    between atoms: _134  and  _135
REMARK   56  A    between atoms: _138  and  _140
REMARK   57  A    between atoms: _140  and  _141
REMARK   58  A    between atoms: _140  and  _143
REMARK   59  A    between atoms: _146  and  _148
REMARK   60  A    between atoms: _148  and  _149
REMARK   61  A    between atoms: _148  and  _151
REMARK   62  A    between atoms: _151  and  _152
REMARK   63  A    between atoms: _154  and  _156
REMARK   64  A    between atoms: _156  and  _157
REMARK   65  A    between atoms: _156  and  _159
REMARK   66  A    between atoms: _159  and  _160
REMARK   67  A    between atoms: _163  and  _165
REMARK   68  A    between atoms: _165  and  _166
REMARK   69  A    between atoms: _165  and  _168
REMARK   70  A    between atoms: _168  and  _169
REMARK   71  A    between atoms: _175  and  _177
REMARK   72  A    between atoms: _177  and  _178
REMARK   73  A    between atoms: _177  and  _180
REMARK   74  A    between atoms: _183  and  _185
REMARK   75  A    between atoms: _185  and  _186
REMARK   76  A    between atoms: _185  and  _188
REMARK   77  A    between atoms: _188  and  _189
REMARK   78  A    between atoms: _194  and  _196
REMARK   79  A    between atoms: _196  and  _197
REMARK   80  A    between atoms: _196  and  _199
REMARK   81  A    between atoms: _199  and  _200
REMARK   82  A    between atoms: _200  and  _201
REMARK   83  A    between atoms: _206  and  _208
REMARK   84  A    between atoms: _208  and  _209
REMARK   85  A    between atoms: _208  and  _211
REMARK   86  A    between atoms: _211  and  _212
REMARK   87  A    between atoms: _212  and  _213
REMARK   88  A    between atoms: _215  and  _217
REMARK   89  A    between atoms: _217  and  _218
REMARK   90  A    between atoms: _217  and  _220
REMARK   91  A    between atoms: _220  and  _221
REMARK   92  A    between atoms: _226  and  _228
REMARK   93  A    between atoms: _228  and  _229
REMARK   94  A    between atoms: _228  and  _231
REMARK   95  A    between atoms: _231  and  _232
REMARK   96  A    between atoms: _238  and  _240
REMARK   97  A    between atoms: _240  and  _241
REMARK   98  A    between atoms: _243  and  _245
REMARK   99  A    between atoms: _245  and  _246
REMARK  100  A    between atoms: _245  and  _248
REMARK  101  A    between atoms: _251  and  _253
REMARK  102  A    between atoms: _253  and  _254
REMARK  103  A    between atoms: _253  and  _256
REMARK  104  A    between atoms: _256  and  _257
REMARK  105  A    between atoms: _260  and  _262
REMARK  106  A    between atoms: _262  and  _263
REMARK  107  A    between atoms: _262  and  _265
REMARK  108  A    between atoms: _265  and  _266
REMARK  109  A    between atoms: _269  and  _271
REMARK  110  A    between atoms: _271  and  _272
REMARK  111  A    between atoms: _271  and  _274
REMARK  112  A    between atoms: _277  and  _279
REMARK  113  A    between atoms: _279  and  _280
REMARK  114  A    between atoms: _279  and  _282
REMARK  115  A    between atoms: _285  and  _287
REMARK  116  A    between atoms: _287  and  _288
REMARK  117  A    between atoms: _287  and  _290
REMARK  118  A    between atoms: _290  and  _291
REMARK  119  A    between atoms: _294  and  _296
REMARK  120  A    between atoms: _296  and  _297
REMARK  121  A    between atoms: _296  and  _299
REMARK  122  A    between atoms: _299  and  _300
REMARK  123  A    between atoms: _303  and  _305
REMARK  124  A    between atoms: _305  and  _306
REMARK  125  A    between atoms: _305  and  _308
REMARK  126  A    between atoms: _308  and  _309
REMARK  127  A    between atoms: _315  and  _317
REMARK  128  A    between atoms: _317  and  _318
REMARK  129  A    between atoms: _317  and  _320
REMARK  130  A    between atoms: _320  and  _321
REMARK  131  A    between atoms: _327  and  _329
REMARK  132  A    between atoms: _329  and  _330
REMARK  133  A    between atoms: _332  and  _334
REMARK  134  A    between atoms: _334  and  _335
REMARK  135  A    between atoms: _334  and  _337
REMARK  136  A    between atoms: _337  and  _338
REMARK  137  A    between atoms: _338  and  _339
REMARK  138  A    between atoms: _342  and  _344
REMARK  139  A    between atoms: _344  and  _345
REMARK  140  A    between atoms: _344  and  _347
REMARK  141  A    between atoms: _347  and  _348
REMARK  142  A    between atoms: _348  and  _349
REMARK  143  A    between atoms: _349  and  _350
REMARK  144  A    between atoms: _350  and  _351
REMARK  145  A    between atoms: _355  and  _357
REMARK  146  A    between atoms: _357  and  _358
REMARK  147  A    between atoms: _357  and  _360
REMARK  148  A    between atoms: _360  and  _361
REMARK  149  A    between atoms: _364  and  _366
REMARK  150  A    between atoms: _366  and  _367
REMARK  151  A    between atoms: _366  and  _369
REMARK  152  A    between atoms: _369  and  _370
REMARK  153  A    between atoms: _370  and  _371
REMARK  154  A    between atoms: _376  and  _378
REMARK  155  A    between atoms: _378  and  _379
REMARK  156  A    between atoms: _378  and  _381
REMARK  157  A    between atoms: _381  and  _382
REMARK  158  A    between atoms: _385  and  _387
REMARK  159  A    between atoms: _387  and  _388
REMARK  160  A    between atoms: _390  and  _392
REMARK  161  A    between atoms: _392  and  _393
REMARK  162  A    between atoms: _392  and  _395
REMARK  163  A    between atoms: _399  and  _400
REMARK  164  A    between atoms: _405  and  _407
REMARK  165  A    between atoms: _407  and  _408
REMARK  166  A    between atoms: _407  and  _410
REMARK  167  A    between atoms: _410  and  _411
REMARK  168  A    between atoms: _414  and  _416
REMARK  169  A    between atoms: _416  and  _417
REMARK  170  A    between atoms: _416  and  _419
REMARK  171  A    between atoms: _422  and  _424
REMARK  172  A    between atoms: _424  and  _425
REMARK  173  A    between atoms: _424  and  _427
REMARK  174  A    between atoms: _427  and  _428
REMARK  175  A    between atoms: _428  and  _429
REMARK  176  A    between atoms: _429  and  _430
REMARK  177  A    between atoms: _439  and  _441
REMARK  178  A    between atoms: _441  and  _442
REMARK  179  A    between atoms: _441  and  _444
REMARK  180  A    between atoms: _444  and  _445
REMARK  181  A    between atoms: _448  and  _450
REMARK  182  A    between atoms: _450  and  _451
REMARK  183  A    between atoms: _454  and  _456
REMARK  184  A    between atoms: _456  and  _457
REMARK  185  A    between atoms: _456  and  _459
REMARK  186  A    between atoms: _459  and  _460
REMARK  187  A    between atoms: _460  and  _461
REMARK  188  A    between atoms: _463  and  _465
REMARK  189  A    between atoms: _465  and  _466
REMARK  190  A    between atoms: _465  and  _468
REMARK  191  A    between atoms: _468  and  _469
REMARK  192  A    between atoms: _471  and  _473
REMARK  193  A    between atoms: _473  and  _474
REMARK  194  A    between atoms: _473  and  _476
REMARK  195  A    between atoms: _476  and  _477
REMARK  196  A    between atoms: _479  and  _481
REMARK  197  A    between atoms: _481  and  _482
REMARK  198  A    between atoms: _481  and  _484
REMARK  199  A    between atoms: _484  and  _485
REMARK  200  A    between atoms: _485  and  _486
REMARK  201  A    between atoms: _486  and  _487
REMARK  202  A    between atoms: _496  and  _498
REMARK  203  A    between atoms: _498  and  _499
REMARK  204  A    between atoms: _498  and  _501
REMARK  205  A    between atoms: _501  and  _502
REMARK  206  A    between atoms: _507  and  _509
REMARK  207  A    between atoms: _509  and  _510
REMARK  208  A    between atoms: _509  and  _512
REMARK  209  A    between atoms: _512  and  _513
REMARK  210  A    between atoms: _513  and  _514
REMARK  211  A    between atoms: _514  and  _515
REMARK  212  A    between atoms: _524  and  _526
REMARK  213  A    between atoms: _526  and  _527
REMARK  214  A    between atoms: _526  and  _529
REMARK  215  A    between atoms: _529  and  _530
REMARK  216  A    between atoms: _533  and  _535
REMARK  217  A    between atoms: _535  and  _536
REMARK  218  A    between atoms: _535  and  _538
REMARK  219  A    between atoms: _538  and  _539
REMARK                            x       y       z     vdW  Elec       q    Type
REMARK                         _______ _______ _______ _____ _____    ______ ____
ROOT
ATOM      1  CA  ALA A   1      -9.840  -1.454  37.840  0.00  0.00    +0.133 C 
ATOM      2  CB  ALA A   1      -8.314  -1.386  38.015  0.00  0.00    +0.027 C 
ENDROOT
BRANCH   1   3
ATOM      3  N   ALA A   1     -10.312  -2.822  38.029  0.00  0.00    -0.239 NA
ATOM      4  H   ALA A   1      -9.615  -3.563  38.244  0.00  0.00    +0.142 HD
ENDBRANCH   1   3
BRANCH   1   5
ATOM      5  C   ALA A   1     -10.232  -0.906  36.464  0.00  0.00    +0.224 C 
ATOM      6  O   ALA A   1     -10.614   0.252  36.337  0.00  0.00    -0.287 OA
ENDBRANCH   1   5
TORSDOF 2
REMARK  Name = ../refined-set-2016/3ivg/3ivg_pocket.pdb
REMARK  219 active torsions:
REMARK  status: ('A' for Active; 'I' for Inactive)
REMARK    1  A    between atoms: _1  and  _3
REMARK    2  A    between atoms: _3  and  _4
REMARK    3  A    between atoms: _3  and  _6
REMARK    4  A    between atoms: _6  and  _7
REMARK    5  A    between atoms: _10  and  _12
REMARK    6  A    between atoms: _12  and  _13
REMARK    7  A    between atoms: _12  and  _15
REMARK    8  A    between atoms: _19  and  _20
REMARK    9  A    between atoms: _25  and  _27
REMARK   10  A    between atoms: _27  and  _28
REMARK   11  A    between atoms: _27  and  _30
REMARK   12  A    between atoms: _30  and  _31
REMARK   13  A    between atoms: _34  and  _36
REMARK   14  A    between atoms: _36  and  _37
REMARK   15  A    between atoms: _36  and  _39
REMARK   16  A    between atoms: _39  and  _40
REMARK   17  A    between atoms: _40  and  _41
REMARK   18  A    between atoms: _43  and  _45
REMARK   19  A    between atoms: _45  and  _46
REMARK   20  A    between atoms: _48  and  _50
REMARK   21  A    between atoms: _50  and  _51
REMARK   22  A    between atoms: _54  and  _56
REMARK   23  A    between atoms: _56  and  _57
REMARK   24  A    between atoms: _56  and  _59
REMARK   25  A    between atoms: _59  and  _60
REMARK   26  A    between atoms: _63  and  _65
REMARK   27  A    between atoms: _65  and  _66
REMARK   28  A    between atoms: _65  and  _68
REMARK   29  A    between atoms: _68  and  _69
REMARK   30  A    between atoms: _74  and  _76
REMARK   31  A    between atoms: _76  and  _77
REMARK   32  A    between atoms: _76  and  _79
REMARK   33  A    between atoms: _79  and  _80
REMARK   34  A    between atoms: _80  and  _81
REMARK   35  A    between atoms: _84  and  _86
REMARK   36  A    between atoms: _86  and  _87
REMARK   37  A    between atoms: _89  and  _91
REMARK   38  A    between atoms: _91  and  _92
REMARK   39  A    between atoms: _91  and  _94
REMARK   40  A    between atoms: _94  and  _95
REMARK   41  A    between atoms: _100  and  _102
REMARK   42  A    between atoms: _102  and  _103
REMARK   43  A    between atoms: _102  and  _105
REMARK   44  A    between atoms: _105  and  _106
REMARK   45  A    between atoms: _109  and  _111
REMARK   46  A    between atoms: _111  and  _112
REMARK   47  A    between atoms: _115  and  _117
REMARK   48  A    between atoms: _117  and  _118
REMARK   49  A    between atoms: _117  and  _120
REMARK   50  A    between atoms: _120  and  _121
REMARK   51  A    between atoms: _124  and  _126
REMARK   52  A    between atoms: _126  and  _127
REMARK   53  A    between atoms: _126  and  _129
REMARK   54  A    between atoms: _132  and  _134
REMARK   55  A    between atoms: _134  and  _135
REMARK   56  A    between atoms: _138  and  _140
REMARK   57  A    between atoms: _140  and  _141
REMARK   58  A    between atoms: _140  and  _143
REMARK   59  A    between atoms: _146  and  _148
REMARK   60  A    between atoms: _148  and  _149
REMARK   61  A    between atoms: _148  and  _151
REMARK   62  A    between atoms: _151  and  _152
REMARK   63  A    between atoms: _154  and  _156
REMARK   64  A    between atoms: _156  and  _157
REMARK   65  A    between atoms: _156  and  _159
REMARK   66  A    between atoms: _159  and  _160
REMARK   67  A    between atoms: _163  and  _165
REMARK   68  A    between atoms: _165  and  _166
REMARK   69  A    between atoms: _165  and  _168
REMARK   70  A    between atoms: _168  and  _169
REMARK   71  A    between atoms: _175  and  _177
REMARK   72  A    between atoms: _177  and  _178
REMARK   73  A    between atoms: _177  and  _180
REMARK   74  A    between atoms: _183  and  _185
REMARK   75  A    between atoms: _185  and  _186
REMARK   76  A    between atoms: _185  and  _188
REMARK   77  A    between atoms: _188  and  _189
REMARK   78  A    between atoms: _194  and  _196
REMARK   79  A    between atoms: _196  and  _197
REMARK   80  A    between atoms: _196  and  _199
REMARK   81  A    between atoms: _199  and  _200
REMARK   82  A    between atoms: _200  and  _201
REMARK   83  A    between atoms: _206  and  _208
REMARK   84  A    between atoms: _208  and  _209
REMARK   85  A    between atoms: _208  and  _211
REMARK   86  A    between atoms: _211  and  _212
REMARK   87  A    between atoms: _212  and  _213
REMARK   88  A    between atoms: _215  and  _217
REMARK   89  A    between atoms: _217  and  _218
REMARK   90  A    between atoms: _217  and  _220
REMARK   91  A    between atoms: _220  and  _221
REMARK   92  A    between atoms: _226  and  _228
REMARK   93  A    between atoms: _228  and  _229
REMARK   94  A    between atoms: _228  and  _231
REMARK   95  A    between atoms: _231  and  _232
REMARK   96  A    between atoms: _238  and  _240
REMARK   97  A    between atoms: _240  and  _241
REMARK   98  A    between atoms: _243  and  _245
REMARK   99  A    between atoms: _245  and  _246
REMARK  100  A    between atoms: _245  and  _248
REMARK  101  A    between atoms: _251  and  _253
REMARK  102  A    between atoms: _253  and  _254
REMARK  103  A    between atoms: _253  and  _256
REMARK  104  A    between atoms: _256  and  _257
REMARK  105  A    between atoms: _260  and  _262
REMARK  106  A    between atoms: _262  and  _263
REMARK  107  A    between atoms: _262  and  _265
REMARK  108  A    between atoms: _265  and  _266
REMARK  109  A    between atoms: _269  and  _271
REMARK  110  A    between atoms: _271  and  _272
REMARK  111  A    between atoms: _271  and  _274
REMARK  112  A    between atoms: _277  and  _279
REMARK  113  A    between atoms: _279  and  _280
REMARK  114  A    between atoms: _279  and  _282
REMARK  115  A    between atoms: _285  and  _287
REMARK  116  A    between atoms: _287  and  _288
REMARK  117  A    between atoms: _287  and  _290
REMARK  118  A    between atoms: _290  and  _291
REMARK  119  A    between atoms: _294  and  _296
REMARK  120  A    between atoms: _296  and  _297
REMARK  121  A    between atoms: _296  and  _299
REMARK  122  A    between atoms: _299  and  _300
REMARK  123  A    between atoms: _303  and  _305
REMARK  124  A    between atoms: _305  and  _306
REMARK  125  A    between atoms: _305  and  _308
REMARK  126  A    between atoms: _308  and  _309
REMARK  127  A    between atoms: _315  and  _317
REMARK  128  A    between atoms: _317  and  _318
REMARK  129  A    between atoms: _317  and  _320
REMARK  130  A    between atoms: _320  and  _321
REMARK  131  A    between atoms: _327  and  _329
REMARK  132  A    between atoms: _329  and  _330
REMARK  133  A    between atoms: _332  and  _334
REMARK  134  A    between atoms: _334  and  _335
REMARK  135  A    between atoms: _334  and  _337
REMARK  136  A    between atoms: _337  and  _338
REMARK  137  A    between atoms: _338  and  _339
REMARK  138  A    between atoms: _342  and  _344
REMARK  139  A    between atoms: _344  and  _345
REMARK  140  A    between atoms: _344  and  _347
REMARK  141  A    between atoms: _347  and  _348
REMARK  142  A    between atoms: _348  and  _349
REMARK  143  A    between atoms: _349  and  _350
REMARK  144  A    between atoms: _350  and  _351
REMARK  145  A    between atoms: _355  and  _357
REMARK  146  A    between atoms: _357  and  _358
REMARK  147  A    between atoms: _357  and  _360
REMARK  148  A    between atoms: _360  and  _361
REMARK  149  A    between atoms: _364  and  _366
REMARK  150  A    between atoms: _366  and  _367
REMARK  151  A    between atoms: _366  and  _369
REMARK  152  A    between atoms: _369  and  _370
REMARK  153  A    between atoms: _370  and  _371
REMARK  154  A    between atoms: _376  and  _378
REMARK  155  A    between atoms: _378  and  _379
REMARK  156  A    between atoms: _378  and  _381
REMARK  157  A    between atoms: _381  and  _382
REMARK  158  A    between atoms: _385  and  _387
REMARK  159  A    between atoms: _387  and  _388
REMARK  160  A    between atoms: _390  and  _392
REMARK  161  A    between atoms: _392  and  _393
REMARK  162  A    between atoms: _392  and  _395
REMARK  163  A    between atoms: _399  and  _400
REMARK  164  A    between atoms: _405  and  _407
REMARK  165  A    between atoms: _407  and  _408
REMARK  166  A    between atoms: _407  and  _410
REMARK  167  A    between atoms: _410  and  _411
REMARK  168  A    between atoms: _414  and  _416
REMARK  169  A    between atoms: _416  and  _417
REMARK  170  A    between atoms: _416  and  _419
REMARK  171  A    between atoms: _422  and  _424
REMARK  172  A    between atoms: _424  and  _425
REMARK  173  A    between atoms: _424  and  _427
REMARK  174  A    between atoms: _427  and  _428
REMARK  175  A    between atoms: _428  and  _429
REMARK  176  A    between atoms: _429  and  _430
REMARK  177  A    between atoms: _439  and  _441
REMARK  178  A    between atoms: _441  and  _442
REMARK  179  A    between atoms: _441  and  _444
REMARK  180  A    between atoms: _444  and  _445
REMARK  181  A    between atoms: _448  and  _450
REMARK  182  A    between atoms: _450  and  _451
REMARK  183  A    between atoms: _454  and  _456
REMARK  184  A    between atoms: _456  and  _457
REMARK  185  A    between atoms: _456  and  _459
REMARK  186  A    between atoms: _459  and  _460
REMARK  187  A    between atoms: _460  and  _461
REMARK  188  A    between atoms: _463  and  _465
REMARK  189  A    between atoms: _465  and  _466
REMARK  190  A    between atoms: _465  and  _468
REMARK  191  A    between atoms: _468  and  _469
REMARK  192  A    between atoms: _471  and  _473
REMARK  193  A    between atoms: _473  and  _474
REMARK  194  A    between atoms: _473  and  _476
REMARK  195  A    between atoms: _476  and  _477
REMARK  196  A    between atoms: _479  and  _481
REMARK  197  A    between atoms: _481  and  _482
REMARK  198  A    between atoms: _481  and  _484
REMARK  199  A    between atoms: _484  and  _485
REMARK  200  A    between atoms: _485  and  _486
REMARK  201  A    between atoms: _486  and  _487
REMARK  202  A    between atoms: _496  and  _498
REMARK  203  A    between atoms: _498  and  _499
REMARK  204  A    between atoms: _498  and  _501
REMARK  205  A    between atoms: _501  and  _502
REMARK  206  A    between atoms: _507  and  _509
REMARK  207  A    between atoms: _509  and  _510
REMARK  208  A    between atoms: _509  and  _512
REMARK  209  A    between atoms: _512  and  _513
REMARK  210  A    between atoms: _513  and  _514
REMARK  211  A    between atoms: _514  and  _515
REMARK  212  A    between atoms: _524  and  _526
REMARK  213  A    between atoms: _526  and  _527
REMARK  214  A    between atoms: _526  and  _529
REMARK  215  A    between atoms: _529  and  _530
REMARK  216  A    between atoms: _533  and  _535
REMARK  217  A    between atoms: _535  and  _536
REMARK  218  A    between atoms: _535  and  _538
REMARK  219  A    between atoms: _538  and  _539
REMARK                            x       y       z     vdW  Elec       q    Type
REMARK                         _______ _______ _______ _____ _____    ______ ____
ROOT
ATOM      1  CA  PHE A   4      -1.128 -14.976  25.216  0.00  0.00    +0.153 C 
ENDROOT
BRANCH   1   3
ATOM      2  C   ILE A   3      -3.407 -14.787  25.962  0.00  0.00    +0.241 C 
ATOM      3  N   PHE A   4      -2.123 -14.582  26.187  0.00  0.00    -0.297 N 
ATOM      4  H   PHE A   4      -1.823 -14.131  27.075  0.00  0.00    +0.150 HD
ATOM      5  O   ILE A   3      -3.836 -15.314  24.931  0.00  0.00    -0.273 OA
BRANCH   2   6
ATOM      6  CA  ILE A   3      -4.352 -14.228  27.014  0.00  0.00    +0.149 C 
BRANCH   6   9
ATOM      7  C   SER A   2      -4.897 -11.842  27.005  0.00  0.00    +0.243 C 
ATOM      8  O   SER A   2      -4.593 -11.704  28.186  0.00  0.00    -0.273 OA
ATOM      9  N   ILE A   3      -4.848 -12.999  26.373  0.00  0.00    -0.297 N 
ATOM     10  H   ILE A   3      -5.172 -13.045  25.386  0.00  0.00    +0.150 HD
BRANCH   7  11
ATOM     11  CA  SER A   2      -5.437 -10.689  26.197  0.00  0.00    +0.178 C 
BRANCH  11  13
ATOM     12  C   VAL A   1      -7.479 -10.005  27.238  0.00  0.00    +0.238 C 
ATOM     13  N   SER A   2      -6.175  -9.841  27.096  0.00  0.00    -0.295 N 
ATOM     14  H   SER A   2      -5.682  -9.099  27.634  0.00  0.00    +0.150 HD
ATOM     15  O   VAL A   1      -8.135 -10.795  26.554  0.00  0.00    -0.274 OA
BRANCH  12  16
ATOM     16  CA  VAL A   1      -8.187  -9.160  28.274  0.00  0.00    +0.145 C 
BRANCH  16  17
ATOM     17  CB  VAL A   1      -8.829 -10.124  29.301  0.00  0.00    +0.025 C 
ATOM     18  CG2 VAL A   1      -9.750  -9.371  30.266  0.00  0.00    +0.002 C 
ATOM     19  CG1 VAL A   1      -7.744 -10.921  30.074  0.00  0.00    +0.002 C 
ENDBRANCH  16  17
BRANCH  16  20
ATOM     20  N   VAL A   1      -9.203  -8.376  27.543  0.00  0.00    -0.238 NA
ATOM     21  H   VAL A   1     -10.039  -8.858  27.155  0.00  0.00    +0.142 HD
ENDBRANCH  16  20
ENDBRANCH  12  16
ENDBRANCH  11  13
BRANCH  11  22
ATOM     22  CB  SER A   2      -4.325  -9.944  25.450  0.00  0.00    +0.166 C 
BRANCH  22  23
ATOM     23  OG  SER A   2      -3.332  -9.416  26.298  0.00  0.00    -0.380 OA
ATOM     24  H   SER A   2      -2.907 -10.153  26.805  0.00  0.00    +0.211 HD
ENDBRANCH  22  23
ENDBRANCH  11  22
ENDBRANCH   7  11
ENDBRANCH   6   9
BRANCH   6  25
ATOM     25  CB  ILE A   3      -5.501 -15.220  27.357  0.00  0.00    +0.027 C 
ATOM     26  CG2 ILE A   3      -4.952 -16.608  27.820  0.00  0.00    +0.002 C 
BRANCH  25  27
ATOM     27  CG1 ILE A   3      -6.396 -14.642  28.456  0.00  0.00    +0.002 C 
ATOM     28  CD1 ILE A   3      -7.767 -15.278  28.495  0.00  0.00    +0.000 C 
ENDBRANCH  25  27
ENDBRANCH   6  25
ENDBRANCH   2   6
ENDBRANCH   1   3
BRANCH   1  29
ATOM     29  C   PHE A   4       0.114 -15.388  25.947  0.00  0.00    +0.241 C 
ATOM     30  O   PHE A   4       0.657 -14.618  26.741  0.00  0.00    -0.273 OA
ATOM     31  N   VAL A   5       0.542 -16.618  25.678  0.00  0.00    -0.297 N 
ATOM     32  H   VAL A   5      -0.013 -17.203  25.021  0.00  0.00    +0.150 HD
BRANCH  31  33
ATOM     33  CA  VAL A   5       1.748 -17.183  26.258  0.00  0.00    +0.149 C 
BRANCH  33  34
ATOM     34  C   VAL A   5       2.873 -16.838  25.311  0.00  0.00    +0.241 C 
ATOM     35  N   ASN A   6       3.662 -15.846  25.707  0.00  0.00    -0.298 N 
ATOM     36  H   ASN A   6       3.501 -15.419  26.641  0.00  0.00    +0.150 HD
ATOM     37  O   VAL A   5       3.007 -17.441  24.238  0.00  0.00    -0.273 OA
BRANCH  35  38
ATOM     38  CA  ASN A   6       4.743 -15.337  24.879  0.00  0.00    +0.146 C 
BRANCH  38  39
ATOM     39  C   ASN A   6       5.963 -16.236  24.998  0.00  0.00    +0.227 C 
ATOM     40  O   ASN A   6       6.553 -16.333  26.093  0.00  0.00    -0.286 OA
ENDBRANCH  38  39
BRANCH  38  41
ATOM     41  CB  ASN A   6       5.078 -13.896  25.290  0.00  0.00    +0.112 C 
BRANCH  41  42
ATOM     42  CG  ASN A   6       6.272 -13.304  24.521  0.00  0.00    +0.222 C 
ATOM     43  ND2 ASN A   6       6.803 -12.198  25.041  0.00  0.00    -0.329 N 
ATOM     44 HD21 ASN A   6       6.421 -11.803  25.924  0.00  0.00    +0.145 HD
ATOM     45 HD22 ASN A   6       7.600 -11.730  24.564  0.00  0.00    +0.145 HD
ATOM     46  OD1 ASN A   6       6.693 -13.813  23.471  0.00  0.00    -0.275 OA
ENDBRANCH  41  42
ENDBRANCH  38  41
ENDBRANCH  35  38
ENDBRANCH  33  34
BRANCH  33  47
ATOM     47  CB  VAL A   5       1.654 -18.708  26.382  0.00  0.00    +0.027 C 
ATOM     48  CG2 VAL A   5       0.356 -19.125  27.127  0.00  0.00    +0.002 C 
ATOM     49  CG1 VAL A   5       2.919 -19.260  27.063  0.00  0.00    +0.002 C 
ENDBRANCH  33  47
ENDBRANCH  31  33
ENDBRANCH   1  29
BRANCH   1  50
ATOM     50  CB  PHE A   4      -0.784 -13.859  24.229  0.00  0.00    +0.055 C 
BRANCH  50  51
ATOM     51  CG  PHE A   4       0.309 -14.240  23.265  0.00  0.00    -0.020 A 
ATOM     52  CD2 PHE A   4       1.520 -13.549  23.256  0.00  0.00    -0.004 A 
ATOM     53  CE2 PHE A   4       2.546 -13.895  22.378  0.00  0.00    -0.000 A 
ATOM     54  CZ  PHE A   4       2.386 -14.963  21.496  0.00  0.00    -0.000 A 
ATOM     55  CE1 PHE A   4       1.177 -15.686  21.495  0.00  0.00    -0.000 A 
ATOM     56  CD1 PHE A   4       0.147 -15.325  22.390  0.00  0.00    -0.004 A 
ENDBRANCH  50  51
ENDBRANCH   1  50
TORSDOF 22
REMARK  Name = ../refined-set-2016/3ivg/3ivg_pocket.pdb
REMARK  219 active torsions:
REMARK  status: ('A' for Active; 'I' for Inactive)
REMARK    1  A    between atoms: _1  and  _3
REMARK    2  A    between atoms: _3  and  _4
REMARK    3  A    between atoms: _3  and  _6
REMARK    4  A    between atoms: _6  and  _7
REMARK    5  A    between atoms: _10  and  _12
REMARK    6  A    between atoms: _12  and  _13
REMARK    7  A    between atoms: _12  and  _15
REMARK    8  A    between atoms: _19  and  _20
REMARK    9  A    between atoms: _25  and  _27
REMARK   10  A    between atoms: _27  and  _28
REMARK   11  A    between atoms: _27  and  _30
REMARK   12  A    between atoms: _30  and  _31
REMARK   13  A    between atoms: _34  and  _36
REMARK   14  A    between atoms: _36  and  _37
REMARK   15  A    between atoms: _36  and  _39
REMARK   16  A    between atoms: _39  and  _40
REMARK   17  A    between atoms: _40  and  _41
REMARK   18  A    between atoms: _43  and  _45
REMARK   19  A    between atoms: _45  and  _46
REMARK   20  A    between atoms: _48  and  _50
REMARK   21  A    between atoms: _50  and  _51
REMARK   22  A    between atoms: _54  and  _56
REMARK   23  A    between atoms: _56  and  _57
REMARK   24  A    between atoms: _56  and  _59
REMARK   25  A    between atoms: _59  and  _60
REMARK   26  A    between atoms: _63  and  _65
REMARK   27  A    between atoms: _65  and  _66
REMARK   28  A    between atoms: _65  and  _68
REMARK   29  A    between atoms: _68  and  _69
REMARK   30  A    between atoms: _74  and  _76
REMARK   31  A    between atoms: _76  and  _77
REMARK   32  A    between atoms: _76  and  _79
REMARK   33  A    between atoms: _79  and  _80
REMARK   34  A    between atoms: _80  and  _81
REMARK   35  A    between atoms: _84  and  _86
REMARK   36  A    between atoms: _86  and  _87
REMARK   37  A    between atoms: _89  and  _91
REMARK   38  A    between atoms: _91  and  _92
REMARK   39  A    between atoms: _91  and  _94
REMARK   40  A    between atoms: _94  and  _95
REMARK   41  A    between atoms: _100  and  _102
REMARK   42  A    between atoms: _102  and  _103
REMARK   43  A    between atoms: _102  and  _105
REMARK   44  A    between atoms: _105  and  _106
REMARK   45  A    between atoms: _109  and  _111
REMARK   46  A    between atoms: _111  and  _112
REMARK   47  A    between atoms: _115  and  _117
REMARK   48  A    between atoms: _117  and  _118
REMARK   49  A    between atoms: _117  and  _120
REMARK   50  A    between atoms: _120  and  _121
REMARK   51  A    between atoms: _124  and  _126
REMARK   52  A    between atoms: _126  and  _127
REMARK   53  A    between atoms: _126  and  _129
REMARK   54  A    between atoms: _132  and  _134
REMARK   55  A    between atoms: _134  and  _135
REMARK   56  A    between atoms: _138  and  _140
REMARK   57  A    between atoms: _140  and  _141
REMARK   58  A    between atoms: _140  and  _143
REMARK   59  A    between atoms: _146  and  _148
REMARK   60  A    between atoms: _148  and  _149
REMARK   61  A    between atoms: _148  and  _151
REMARK   62  A    between atoms: _151  and  _152
REMARK   63  A    between atoms: _154  and  _156
REMARK   64  A    between atoms: _156  and  _157
REMARK   65  A    between atoms: _156  and  _159
REMARK   66  A    between atoms: _159  and  _160
REMARK   67  A    between atoms: _163  and  _165
REMARK   68  A    between atoms: _165  and  _166
REMARK   69  A    between atoms: _165  and  _168
REMARK   70  A    between atoms: _168  and  _169
REMARK   71  A    between atoms: _175  and  _177
REMARK   72  A    between atoms: _177  and  _178
REMARK   73  A    between atoms: _177  and  _180
REMARK   74  A    between atoms: _183  and  _185
REMARK   75  A    between atoms: _185  and  _186
REMARK   76  A    between atoms: _185  and  _188
REMARK   77  A    between atoms: _188  and  _189
REMARK   78  A    between atoms: _194  and  _196
REMARK   79  A    between atoms: _196  and  _197
REMARK   80  A    between atoms: _196  and  _199
REMARK   81  A    between atoms: _199  and  _200
REMARK   82  A    between atoms: _200  and  _201
REMARK   83  A    between atoms: _206  and  _208
REMARK   84  A    between atoms: _208  and  _209
REMARK   85  A    between atoms: _208  and  _211
REMARK   86  A    between atoms: _211  and  _212
REMARK   87  A    between atoms: _212  and  _213
REMARK   88  A    between atoms: _215  and  _217
REMARK   89  A    between atoms: _217  and  _218
REMARK   90  A    between atoms: _217  and  _220
REMARK   91  A    between atoms: _220  and  _221
REMARK   92  A    between atoms: _226  and  _228
REMARK   93  A    between atoms: _228  and  _229
REMARK   94  A    between atoms: _228  and  _231
REMARK   95  A    between atoms: _231  and  _232
REMARK   96  A    between atoms: _238  and  _240
REMARK   97  A    between atoms: _240  and  _241
REMARK   98  A    between atoms: _243  and  _245
REMARK   99  A    between atoms: _245  and  _246
REMARK  100  A    between atoms: _245  and  _248
REMARK  101  A    between atoms: _251  and  _253
REMARK  102  A    between atoms: _253  and  _254
REMARK  103  A    between atoms: _253  and  _256
REMARK  104  A    between atoms: _256  and  _257
REMARK  105  A    between atoms: _260  and  _262
REMARK  106  A    between atoms: _262  and  _263
REMARK  107  A    between atoms: _262  and  _265
REMARK  108  A    between atoms: _265  and  _266
REMARK  109  A    between atoms: _269  and  _271
REMARK  110  A    between atoms: _271  and  _272
REMARK  111  A    between atoms: _271  and  _274
REMARK  112  A    between atoms: _277  and  _279
REMARK  113  A    between atoms: _279  and  _280
REMARK  114  A    between atoms: _279  and  _282
REMARK  115  A    between atoms: _285  and  _287
REMARK  116  A    between atoms: _287  and  _288
REMARK  117  A    between atoms: _287  and  _290
REMARK  118  A    between atoms: _290  and  _291
REMARK  119  A    between atoms: _294  and  _296
REMARK  120  A    between atoms: _296  and  _297
REMARK  121  A    between atoms: _296  and  _299
REMARK  122  A    between atoms: _299  and  _300
REMARK  123  A    between atoms: _303  and  _305
REMARK  124  A    between atoms: _305  and  _306
REMARK  125  A    between atoms: _305  and  _308
REMARK  126  A    between atoms: _308  and  _309
REMARK  127  A    between atoms: _315  and  _317
REMARK  128  A    between atoms: _317  and  _318
REMARK  129  A    between atoms: _317  and  _320
REMARK  130  A    between atoms: _320  and  _321
REMARK  131  A    between atoms: _327  and  _329
REMARK  132  A    between atoms: _329  and  _330
REMARK  133  A    between atoms: _332  and  _334
REMARK  134  A    between atoms: _334  and  _335
REMARK  135  A    between atoms: _334  and  _337
REMARK  136  A    between atoms: _337  and  _338
REMARK  137  A    between atoms: _338  and  _339
REMARK  138  A    between atoms: _342  and  _344
REMARK  139  A    between atoms: _344  and  _345
REMARK  140  A    between atoms: _344  and  _347
REMARK  141  A    between atoms: _347  and  _348
REMARK  142  A    between atoms: _348  and  _349
REMARK  143  A    between atoms: _349  and  _350
REMARK  144  A    between atoms: _350  and  _351
REMARK  145  A    between atoms: _355  and  _357
REMARK  146  A    between atoms: _357  and  _358
REMARK  147  A    between atoms: _357  and  _360
REMARK  148  A    between atoms: _360  and  _361
REMARK  149  A    between atoms: _364  and  _366
REMARK  150  A    between atoms: _366  and  _367
REMARK  151  A    between atoms: _366  and  _369
REMARK  152  A    between atoms: _369  and  _370
REMARK  153  A    between atoms: _370  and  _371
REMARK  154  A    between atoms: _376  and  _378
REMARK  155  A    between atoms: _378  and  _379
REMARK  156  A    between atoms: _378  and  _381
REMARK  157  A    between atoms: _381  and  _382
REMARK  158  A    between atoms: _385  and  _387
REMARK  159  A    between atoms: _387  and  _388
REMARK  160  A    between atoms: _390  and  _392
REMARK  161  A    between atoms: _392  and  _393
REMARK  162  A    between atoms: _392  and  _395
REMARK  163  A    between atoms: _399  and  _400
REMARK  164  A    between atoms: _405  and  _407
REMARK  165  A    between atoms: _407  and  _408
REMARK  166  A    between atoms: _407  and  _410
REMARK  167  A    between atoms: _410  and  _411
REMARK  168  A    between atoms: _414  and  _416
REMARK  169  A    between atoms: _416  and  _417
REMARK  170  A    between atoms: _416  and  _419
REMARK  171  A    between atoms: _422  and  _424
REMARK  172  A    between atoms: _424  and  _425
REMARK  173  A    between atoms: _424  and  _427
REMARK  174  A    between atoms: _427  and  _428
REMARK  175  A    between atoms: _428  and  _429
REMARK  176  A    between atoms: _429  and  _430
REMARK  177  A    between atoms: _439  and  _441
REMARK  178  A    between atoms: _441  and  _442
REMARK  179  A    between atoms: _441  and  _444
REMARK  180  A    between atoms: _444  and  _445
REMARK  181  A    between atoms: _448  and  _450
REMARK  182  A    between atoms: _450  and  _451
REMARK  183  A    between atoms: _454  and  _456
REMARK  184  A    between atoms: _456  and  _457
REMARK  185  A    between atoms: _456  and  _459
REMARK  186  A    between atoms: _459  and  _460
REMARK  187  A    between atoms: _460  and  _461
REMARK  188  A    between atoms: _463  and  _465
REMARK  189  A    between atoms: _465  and  _466
REMARK  190  A    between atoms: _465  and  _468
REMARK  191  A    between atoms: _468  and  _469
REMARK  192  A    between atoms: _471  and  _473
REMARK  193  A    between atoms: _473  and  _474
REMARK  194  A    between atoms: _473  and  _476
REMARK  195  A    between atoms: _476  and  _477
REMARK  196  A    between atoms: _479  and  _481
REMARK  197  A    between atoms: _481  and  _482
REMARK  198  A    between atoms: _481  and  _484
REMARK  199  A    between atoms: _484  and  _485
REMARK  200  A    between atoms: _485  and  _486
REMARK  201  A    between atoms: _486  and  _487
REMARK  202  A    between atoms: _496  and  _498
REMARK  203  A    between atoms: _498  and  _499
REMARK  204  A    between atoms: _498  and  _501
REMARK  205  A    between atoms: _501  and  _502
REMARK  206  A    between atoms: _507  and  _509
REMARK  207  A    between atoms: _509  and  _510
REMARK  208  A    between atoms: _509  and  _512
REMARK  209  A    between atoms: _512  and  _513
REMARK  210  A    between atoms: _513  and  _514
REMARK  211  A    between atoms: _514  and  _515
REMARK  212  A    between atoms: _524  and  _526
REMARK  213  A    between atoms: _526  and  _527
REMARK  214  A    between atoms: _526  and  _529
REMARK  215  A    between atoms: _529  and  _530
REMARK  216  A    between atoms: _533  and  _535
REMARK  217  A    between atoms: _535  and  _536
REMARK  218  A    between atoms: _535  and  _538
REMARK  219  A    between atoms: _538  and  _539
REMARK                            x       y       z     vdW  Elec       q    Type
REMARK                         _______ _______ _______ _____ _____    ______ ____
ROOT
ATOM      1  CB  GLN A   1       8.076 -12.678  27.705  0.00  0.00    +0.035 C 
ENDROOT
BRANCH   1   2
ATOM      2  CA  GLN A   1       9.249 -13.571  27.303  0.00  0.00    +0.134 C 
BRANCH   2   3
ATOM      3  N   GLN A   1       9.160 -13.929  25.887  0.00  0.00    -0.239 NA
ATOM      4  H   GLN A   1       8.218 -14.046  25.461  0.00  0.00    +0.142 HD
ENDBRANCH   2   3
BRANCH   2   5
ATOM      5  C   GLN A   1       9.284 -14.832  28.176  0.00  0.00    +0.224 C 
ATOM      6  O   GLN A   1       9.861 -14.836  29.265  0.00  0.00    -0.287 OA
ENDBRANCH   2   5
ENDBRANCH   1   2
BRANCH   1   7
ATOM      7  CG  GLN A   1       6.784 -13.404  28.072  0.00  0.00    +0.087 C 
BRANCH   7   8
ATOM      8  CD  GLN A   1       5.619 -12.443  28.271  0.00  0.00    +0.219 C 
ATOM      9  NE2 GLN A   1       5.272 -12.190  29.530  0.00  0.00    -0.329 N 
ATOM     10 HE21 GLN A   1       5.791 -12.637  30.312  0.00  0.00    +0.145 HD
ATOM     11 HE22 GLN A   1       4.481 -11.545  29.732  0.00  0.00    +0.145 HD
ATOM     12  OE1 GLN A   1       5.037 -11.940  27.308  0.00  0.00    -0.275 OA
ENDBRANCH   7   8
ENDBRANCH   1   7
TORSDOF 5
REMARK  Name = ../refined-set-2016/3ivg/3ivg_pocket.pdb
REMARK  219 active torsions:
REMARK  status: ('A' for Active; 'I' for Inactive)
REMARK    1  A    between atoms: _1  and  _3
REMARK    2  A    between atoms: _3  and  _4
REMARK    3  A    between atoms: _3  and  _6
REMARK    4  A    between atoms: _6  and  _7
REMARK    5  A    between atoms: _10  and  _12
REMARK    6  A    between atoms: _12  and  _13
REMARK    7  A    between atoms: _12  and  _15
REMARK    8  A    between atoms: _19  and  _20
REMARK    9  A    between atoms: _25  and  _27
REMARK   10  A    between atoms: _27  and  _28
REMARK   11  A    between atoms: _27  and  _30
REMARK   12  A    between atoms: _30  and  _31
REMARK   13  A    between atoms: _34  and  _36
REMARK   14  A    between atoms: _36  and  _37
REMARK   15  A    between atoms: _36  and  _39
REMARK   16  A    between atoms: _39  and  _40
REMARK   17  A    between atoms: _40  and  _41
REMARK   18  A    between atoms: _43  and  _45
REMARK   19  A    between atoms: _45  and  _46
REMARK   20  A    between atoms: _48  and  _50
REMARK   21  A    between atoms: _50  and  _51
REMARK   22  A    between atoms: _54  and  _56
REMARK   23  A    between atoms: _56  and  _57
REMARK   24  A    between atoms: _56  and  _59
REMARK   25  A    between atoms: _59  and  _60
REMARK   26  A    between atoms: _63  and  _65
REMARK   27  A    between atoms: _65  and  _66
REMARK   28  A    between atoms: _65  and  _68
REMARK   29  A    between atoms: _68  and  _69
REMARK   30  A    between atoms: _74  and  _76
REMARK   31  A    between atoms: _76  and  _77
REMARK   32  A    between atoms: _76  and  _79
REMARK   33  A    between atoms: _79  and  _80
REMARK   34  A    between atoms: _80  and  _81
REMARK   35  A    between atoms: _84  and  _86
REMARK   36  A    between atoms: _86  and  _87
REMARK   37  A    between atoms: _89  and  _91
REMARK   38  A    between atoms: _91  and  _92
REMARK   39  A    between atoms: _91  and  _94
REMARK   40  A    between atoms: _94  and  _95
REMARK   41  A    between atoms: _100  and  _102
REMARK   42  A    between atoms: _102  and  _103
REMARK   43  A    between atoms: _102  and  _105
REMARK   44  A    between atoms: _105  and  _106
REMARK   45  A    between atoms: _109  and  _111
REMARK   46  A    between atoms: _111  and  _112
REMARK   47  A    between atoms: _115  and  _117
REMARK   48  A    between atoms: _117  and  _118
REMARK   49  A    between atoms: _117  and  _120
REMARK   50  A    between atoms: _120  and  _121
REMARK   51  A    between atoms: _124  and  _126
REMARK   52  A    between atoms: _126  and  _127
REMARK   53  A    between atoms: _126  and  _129
REMARK   54  A    between atoms: _132  and  _134
REMARK   55  A    between atoms: _134  and  _135
REMARK   56  A    between atoms: _138  and  _140
REMARK   57  A    between atoms: _140  and  _141
REMARK   58  A    between atoms: _140  and  _143
REMARK   59  A    between atoms: _146  and  _148
REMARK   60  A    between atoms: _148  and  _149
REMARK   61  A    between atoms: _148  and  _151
REMARK   62  A    between atoms: _151  and  _152
REMARK   63  A    between atoms: _154  and  _156
REMARK   64  A    between atoms: _156  and  _157
REMARK   65  A    between atoms: _156  and  _159
REMARK   66  A    between atoms: _159  and  _160
REMARK   67  A    between atoms: _163  and  _165
REMARK   68  A    between atoms: _165  and  _166
REMARK   69  A    between atoms: _165  and  _168
REMARK   70  A    between atoms: _168  and  _169
REMARK   71  A    between atoms: _175  and  _177
REMARK   72  A    between atoms: _177  and  _178
REMARK   73  A    between atoms: _177  and  _180
REMARK   74  A    between atoms: _183  and  _185
REMARK   75  A    between atoms: _185  and  _186
REMARK   76  A    between atoms: _185  and  _188
REMARK   77  A    between atoms: _188  and  _189
REMARK   78  A    between atoms: _194  and  _196
REMARK   79  A    between atoms: _196  and  _197
REMARK   80  A    between atoms: _196  and  _199
REMARK   81  A    between atoms: _199  and  _200
REMARK   82  A    between atoms: _200  and  _201
REMARK   83  A    between atoms: _206  and  _208
REMARK   84  A    between atoms: _208  and  _209
REMARK   85  A    between atoms: _208  and  _211
REMARK   86  A    between atoms: _211  and  _212
REMARK   87  A    between atoms: _212  and  _213
REMARK   88  A    between atoms: _215  and  _217
REMARK   89  A    between atoms: _217  and  _218
REMARK   90  A    between atoms: _217  and  _220
REMARK   91  A    between atoms: _220  and  _221
REMARK   92  A    between atoms: _226  and  _228
REMARK   93  A    between atoms: _228  and  _229
REMARK   94  A    between atoms: _228  and  _231
REMARK   95  A    between atoms: _231  and  _232
REMARK   96  A    between atoms: _238  and  _240
REMARK   97  A    between atoms: _240  and  _241
REMARK   98  A    between atoms: _243  and  _245
REMARK   99  A    between atoms: _245  and  _246
REMARK  100  A    between atoms: _245  and  _248
REMARK  101  A    between atoms: _251  and  _253
REMARK  102  A    between atoms: _253  and  _254
REMARK  103  A    between atoms: _253  and  _256
REMARK  104  A    between atoms: _256  and  _257
REMARK  105  A    between atoms: _260  and  _262
REMARK  106  A    between atoms: _262  and  _263
REMARK  107  A    between atoms: _262  and  _265
REMARK  108  A    between atoms: _265  and  _266
REMARK  109  A    between atoms: _269  and  _271
REMARK  110  A    between atoms: _271  and  _272
REMARK  111  A    between atoms: _271  and  _274
REMARK  112  A    between atoms: _277  and  _279
REMARK  113  A    between atoms: _279  and  _280
REMARK  114  A    between atoms: _279  and  _282
REMARK  115  A    between atoms: _285  and  _287
REMARK  116  A    between atoms: _287  and  _288
REMARK  117  A    between atoms: _287  and  _290
REMARK  118  A    between atoms: _290  and  _291
REMARK  119  A    between atoms: _294  and  _296
REMARK  120  A    between atoms: _296  and  _297
REMARK  121  A    between atoms: _296  and  _299
REMARK  122  A    between atoms: _299  and  _300
REMARK  123  A    between atoms: _303  and  _305
REMARK  124  A    between atoms: _305  and  _306
REMARK  125  A    between atoms: _305  and  _308
REMARK  126  A    between atoms: _308  and  _309
REMARK  127  A    between atoms: _315  and  _317
REMARK  128  A    between atoms: _317  and  _318
REMARK  129  A    between atoms: _317  and  _320
REMARK  130  A    between atoms: _320  and  _321
REMARK  131  A    between atoms: _327  and  _329
REMARK  132  A    between atoms: _329  and  _330
REMARK  133  A    between atoms: _332  and  _334
REMARK  134  A    between atoms: _334  and  _335
REMARK  135  A    between atoms: _334  and  _337
REMARK  136  A    between atoms: _337  and  _338
REMARK  137  A    between atoms: _338  and  _339
REMARK  138  A    between atoms: _342  and  _344
REMARK  139  A    between atoms: _344  and  _345
REMARK  140  A    between atoms: _344  and  _347
REMARK  141  A    between atoms: _347  and  _348
REMARK  142  A    between atoms: _348  and  _349
REMARK  143  A    between atoms: _349  and  _350
REMARK  144  A    between atoms: _350  and  _351
REMARK  145  A    between atoms: _355  and  _357
REMARK  146  A    between atoms: _357  and  _358
REMARK  147  A    between atoms: _357  and  _360
REMARK  148  A    between atoms: _360  and  _361
REMARK  149  A    between atoms: _364  and  _366
REMARK  150  A    between atoms: _366  and  _367
REMARK  151  A    between atoms: _366  and  _369
REMARK  152  A    between atoms: _369  and  _370
REMARK  153  A    between atoms: _370  and  _371
REMARK  154  A    between atoms: _376  and  _378
REMARK  155  A    between atoms: _378  and  _379
REMARK  156  A    between atoms: _378  and  _381
REMARK  157  A    between atoms: _381  and  _382
REMARK  158  A    between atoms: _385  and  _387
REMARK  159  A    between atoms: _387  and  _388
REMARK  160  A    between atoms: _390  and  _392
REMARK  161  A    between atoms: _392  and  _393
REMARK  162  A    between atoms: _392  and  _395
REMARK  163  A    between atoms: _399  and  _400
REMARK  164  A    between atoms: _405  and  _407
REMARK  165  A    between atoms: _407  and  _408
REMARK  166  A    between atoms: _407  and  _410
REMARK  167  A    between atoms: _410  and  _411
REMARK  168  A    between atoms: _414  and  _416
REMARK  169  A    between atoms: _416  and  _417
REMARK  170  A    between atoms: _416  and  _419
REMARK  171  A    between atoms: _422  and  _424
REMARK  172  A    between atoms: _424  and  _425
REMARK  173  A    between atoms: _424  and  _427
REMARK  174  A    between atoms: _427  and  _428
REMARK  175  A    between atoms: _428  and  _429
REMARK  176  A    between atoms: _429  and  _430
REMARK  177  A    between atoms: _439  and  _441
REMARK  178  A    between atoms: _441  and  _442
REMARK  179  A    between atoms: _441  and  _444
REMARK  180  A    between atoms: _444  and  _445
REMARK  181  A    between atoms: _448  and  _450
REMARK  182  A    between atoms: _450  and  _451
REMARK  183  A    between atoms: _454  and  _456
REMARK  184  A    between atoms: _456  and  _457
REMARK  185  A    between atoms: _456  and  _459
REMARK  186  A    between atoms: _459  and  _460
REMARK  187  A    between atoms: _460  and  _461
REMARK  188  A    between atoms: _463  and  _465
REMARK  189  A    between atoms: _465  and  _466
REMARK  190  A    between atoms: _465  and  _468
REMARK  191  A    between atoms: _468  and  _469
REMARK  192  A    between atoms: _471  and  _473
REMARK  193  A    between atoms: _473  and  _474
REMARK  194  A    between atoms: _473  and  _476
REMARK  195  A    between atoms: _476  and  _477
REMARK  196  A    between atoms: _479  and  _481
REMARK  197  A    between atoms: _481  and  _482
REMARK  198  A    between atoms: _481  and  _484
REMARK  199  A    between atoms: _484  and  _485
REMARK  200  A    between atoms: _485  and  _486
REMARK  201  A    between atoms: _486  and  _487
REMARK  202  A    between atoms: _496  and  _498
REMARK  203  A    between atoms: _498  and  _499
REMARK  204  A    between atoms: _498  and  _501
REMARK  205  A    between atoms: _501  and  _502
REMARK  206  A    between atoms: _507  and  _509
REMARK  207  A    between atoms: _509  and  _510
REMARK  208  A    between atoms: _509  and  _512
REMARK  209  A    between atoms: _512  and  _513
REMARK  210  A    between atoms: _513  and  _514
REMARK  211  A    between atoms: _514  and  _515
REMARK  212  A    between atoms: _524  and  _526
REMARK  213  A    between atoms: _526  and  _527
REMARK  214  A    between atoms: _526  and  _529
REMARK  215  A    between atoms: _529  and  _530
REMARK  216  A    between atoms: _533  and  _535
REMARK  217  A    between atoms: _535  and  _536
REMARK  218  A    between atoms: _535  and  _538
REMARK  219  A    between atoms: _538  and  _539
REMARK                            x       y       z     vdW  Elec       q    Type
REMARK                         _______ _______ _______ _____ _____    ______ ____
ROOT
ATOM      1  CA  MET A   1       1.433 -12.929  16.659  0.00  0.00    +0.134 C 
ENDROOT
BRANCH   1   2
ATOM      2  N   MET A   1       0.594 -14.005  16.099  0.00  0.00    -0.239 NA
ATOM      3  H   MET A   1       0.486 -14.883  16.646  0.00  0.00    +0.142 HD
ENDBRANCH   1   2
BRANCH   1   4
ATOM      4  C   MET A   1       2.755 -12.767  15.926  0.00  0.00    +0.224 C 
ATOM      5  O   MET A   1       3.231 -11.643  15.735  0.00  0.00    -0.287 OA
ENDBRANCH   1   4
BRANCH   1   6
ATOM      6  CB  MET A   1       1.666 -13.162  18.156  0.00  0.00    +0.037 C 
BRANCH   6   7
ATOM      7  CG  MET A   1       0.439 -12.895  19.012  0.00  0.00    +0.059 C 
BRANCH   7   8
ATOM      8  SD  MET A   1      -0.174 -11.163  18.954  0.00  0.00    -0.139 S 
ATOM      9  CE  MET A   1       1.003 -10.390  20.073  0.00  0.00    +0.069 C 
ENDBRANCH   7   8
ENDBRANCH   6   7
ENDBRANCH   1   6
TORSDOF 5
REMARK  Name = ../refined-set-2016/3ivg/3ivg_pocket.pdb
REMARK  219 active torsions:
REMARK  status: ('A' for Active; 'I' for Inactive)
REMARK    1  A    between atoms: _1  and  _3
REMARK    2  A    between atoms: _3  and  _4
REMARK    3  A    between atoms: _3  and  _6
REMARK    4  A    between atoms: _6  and  _7
REMARK    5  A    between atoms: _10  and  _12
REMARK    6  A    between atoms: _12  and  _13
REMARK    7  A    between atoms: _12  and  _15
REMARK    8  A    between atoms: _19  and  _20
REMARK    9  A    between atoms: _25  and  _27
REMARK   10  A    between atoms: _27  and  _28
REMARK   11  A    between atoms: _27  and  _30
REMARK   12  A    between atoms: _30  and  _31
REMARK   13  A    between atoms: _34  and  _36
REMARK   14  A    between atoms: _36  and  _37
REMARK   15  A    between atoms: _36  and  _39
REMARK   16  A    between atoms: _39  and  _40
REMARK   17  A    between atoms: _40  and  _41
REMARK   18  A    between atoms: _43  and  _45
REMARK   19  A    between atoms: _45  and  _46
REMARK   20  A    between atoms: _48  and  _50
REMARK   21  A    between atoms: _50  and  _51
REMARK   22  A    between atoms: _54  and  _56
REMARK   23  A    between atoms: _56  and  _57
REMARK   24  A    between atoms: _56  and  _59
REMARK   25  A    between atoms: _59  and  _60
REMARK   26  A    between atoms: _63  and  _65
REMARK   27  A    between atoms: _65  and  _66
REMARK   28  A    between atoms: _65  and  _68
REMARK   29  A    between atoms: _68  and  _69
REMARK   30  A    between atoms: _74  and  _76
REMARK   31  A    between atoms: _76  and  _77
REMARK   32  A    between atoms: _76  and  _79
REMARK   33  A    between atoms: _79  and  _80
REMARK   34  A    between atoms: _80  and  _81
REMARK   35  A    between atoms: _84  and  _86
REMARK   36  A    between atoms: _86  and  _87
REMARK   37  A    between atoms: _89  and  _91
REMARK   38  A    between atoms: _91  and  _92
REMARK   39  A    between atoms: _91  and  _94
REMARK   40  A    between atoms: _94  and  _95
REMARK   41  A    between atoms: _100  and  _102
REMARK   42  A    between atoms: _102  and  _103
REMARK   43  A    between atoms: _102  and  _105
REMARK   44  A    between atoms: _105  and  _106
REMARK   45  A    between atoms: _109  and  _111
REMARK   46  A    between atoms: _111  and  _112
REMARK   47  A    between atoms: _115  and  _117
REMARK   48  A    between atoms: _117  and  _118
REMARK   49  A    between atoms: _117  and  _120
REMARK   50  A    between atoms: _120  and  _121
REMARK   51  A    between atoms: _124  and  _126
REMARK   52  A    between atoms: _126  and  _127
REMARK   53  A    between atoms: _126  and  _129
REMARK   54  A    between atoms: _132  and  _134
REMARK   55  A    between atoms: _134  and  _135
REMARK   56  A    between atoms: _138  and  _140
REMARK   57  A    between atoms: _140  and  _141
REMARK   58  A    between atoms: _140  and  _143
REMARK   59  A    between atoms: _146  and  _148
REMARK   60  A    between atoms: _148  and  _149
REMARK   61  A    between atoms: _148  and  _151
REMARK   62  A    between atoms: _151  and  _152
REMARK   63  A    between atoms: _154  and  _156
REMARK   64  A    between atoms: _156  and  _157
REMARK   65  A    between atoms: _156  and  _159
REMARK   66  A    between atoms: _159  and  _160
REMARK   67  A    between atoms: _163  and  _165
REMARK   68  A    between atoms: _165  and  _166
REMARK   69  A    between atoms: _165  and  _168
REMARK   70  A    between atoms: _168  and  _169
REMARK   71  A    between atoms: _175  and  _177
REMARK   72  A    between atoms: _177  and  _178
REMARK   73  A    between atoms: _177  and  _180
REMARK   74  A    between atoms: _183  and  _185
REMARK   75  A    between atoms: _185  and  _186
REMARK   76  A    between atoms: _185  and  _188
REMARK   77  A    between atoms: _188  and  _189
REMARK   78  A    between atoms: _194  and  _196
REMARK   79  A    between atoms: _196  and  _197
REMARK   80  A    between atoms: _196  and  _199
REMARK   81  A    between atoms: _199  and  _200
REMARK   82  A    between atoms: _200  and  _201
REMARK   83  A    between atoms: _206  and  _208
REMARK   84  A    between atoms: _208  and  _209
REMARK   85  A    between atoms: _208  and  _211
REMARK   86  A    between atoms: _211  and  _212
REMARK   87  A    between atoms: _212  and  _213
REMARK   88  A    between atoms: _215  and  _217
REMARK   89  A    between atoms: _217  and  _218
REMARK   90  A    between atoms: _217  and  _220
REMARK   91  A    between atoms: _220  and  _221
REMARK   92  A    between atoms: _226  and  _228
REMARK   93  A    between atoms: _228  and  _229
REMARK   94  A    between atoms: _228  and  _231
REMARK   95  A    between atoms: _231  and  _232
REMARK   96  A    between atoms: _238  and  _240
REMARK   97  A    between atoms: _240  and  _241
REMARK   98  A    between atoms: _243  and  _245
REMARK   99  A    between atoms: _245  and  _246
REMARK  100  A    between atoms: _245  and  _248
REMARK  101  A    between atoms: _251  and  _253
REMARK  102  A    between atoms: _253  and  _254
REMARK  103  A    between atoms: _253  and  _256
REMARK  104  A    between atoms: _256  and  _257
REMARK  105  A    between atoms: _260  and  _262
REMARK  106  A    between atoms: _262  and  _263
REMARK  107  A    between atoms: _262  and  _265
REMARK  108  A    between atoms: _265  and  _266
REMARK  109  A    between atoms: _269  and  _271
REMARK  110  A    between atoms: _271  and  _272
REMARK  111  A    between atoms: _271  and  _274
REMARK  112  A    between atoms: _277  and  _279
REMARK  113  A    between atoms: _279  and  _280
REMARK  114  A    between atoms: _279  and  _282
REMARK  115  A    between atoms: _285  and  _287
REMARK  116  A    between atoms: _287  and  _288
REMARK  117  A    between atoms: _287  and  _290
REMARK  118  A    between atoms: _290  and  _291
REMARK  119  A    between atoms: _294  and  _296
REMARK  120  A    between atoms: _296  and  _297
REMARK  121  A    between atoms: _296  and  _299
REMARK  122  A    between atoms: _299  and  _300
REMARK  123  A    between atoms: _303  and  _305
REMARK  124  A    between atoms: _305  and  _306
REMARK  125  A    between atoms: _305  and  _308
REMARK  126  A    between atoms: _308  and  _309
REMARK  127  A    between atoms: _315  and  _317
REMARK  128  A    between atoms: _317  and  _318
REMARK  129  A    between atoms: _317  and  _320
REMARK  130  A    between atoms: _320  and  _321
REMARK  131  A    between atoms: _327  and  _329
REMARK  132  A    between atoms: _329  and  _330
REMARK  133  A    between atoms: _332  and  _334
REMARK  134  A    between atoms: _334  and  _335
REMARK  135  A    between atoms: _334  and  _337
REMARK  136  A    between atoms: _337  and  _338
REMARK  137  A    between atoms: _338  and  _339
REMARK  138  A    between atoms: _342  and  _344
REMARK  139  A    between atoms: _344  and  _345
REMARK  140  A    between atoms: _344  and  _347
REMARK  141  A    between atoms: _347  and  _348
REMARK  142  A    between atoms: _348  and  _349
REMARK  143  A    between atoms: _349  and  _350
REMARK  144  A    between atoms: _350  and  _351
REMARK  145  A    between atoms: _355  and  _357
REMARK  146  A    between atoms: _357  and  _358
REMARK  147  A    between atoms: _357  and  _360
REMARK  148  A    between atoms: _360  and  _361
REMARK  149  A    between atoms: _364  and  _366
REMARK  150  A    between atoms: _366  and  _367
REMARK  151  A    between atoms: _366  and  _369
REMARK  152  A    between atoms: _369  and  _370
REMARK  153  A    between atoms: _370  and  _371
REMARK  154  A    between atoms: _376  and  _378
REMARK  155  A    between atoms: _378  and  _379
REMARK  156  A    between atoms: _378  and  _381
REMARK  157  A    between atoms: _381  and  _382
REMARK  158  A    between atoms: _385  and  _387
REMARK  159  A    between atoms: _387  and  _388
REMARK  160  A    between atoms: _390  and  _392
REMARK  161  A    between atoms: _392  and  _393
REMARK  162  A    between atoms: _392  and  _395
REMARK  163  A    between atoms: _399  and  _400
REMARK  164  A    between atoms: _405  and  _407
REMARK  165  A    between atoms: _407  and  _408
REMARK  166  A    between atoms: _407  and  _410
REMARK  167  A    between atoms: _410  and  _411
REMARK  168  A    between atoms: _414  and  _416
REMARK  169  A    between atoms: _416  and  _417
REMARK  170  A    between atoms: _416  and  _419
REMARK  171  A    between atoms: _422  and  _424
REMARK  172  A    between atoms: _424  and  _425
REMARK  173  A    between atoms: _424  and  _427
REMARK  174  A    between atoms: _427  and  _428
REMARK  175  A    between atoms: _428  and  _429
REMARK  176  A    between atoms: _429  and  _430
REMARK  177  A    between atoms: _439  and  _441
REMARK  178  A    between atoms: _441  and  _442
REMARK  179  A    between atoms: _441  and  _444
REMARK  180  A    between atoms: _444  and  _445
REMARK  181  A    between atoms: _448  and  _450
REMARK  182  A    between atoms: _450  and  _451
REMARK  183  A    between atoms: _454  and  _456
REMARK  184  A    between atoms: _456  and  _457
REMARK  185  A    between atoms: _456  and  _459
REMARK  186  A    between atoms: _459  and  _460
REMARK  187  A    between atoms: _460  and  _461
REMARK  188  A    between atoms: _463  and  _465
REMARK  189  A    between atoms: _465  and  _466
REMARK  190  A    between atoms: _465  and  _468
REMARK  191  A    between atoms: _468  and  _469
REMARK  192  A    between atoms: _471  and  _473
REMARK  193  A    between atoms: _473  and  _474
REMARK  194  A    between atoms: _473  and  _476
REMARK  195  A    between atoms: _476  and  _477
REMARK  196  A    between atoms: _479  and  _481
REMARK  197  A    between atoms: _481  and  _482
REMARK  198  A    between atoms: _481  and  _484
REMARK  199  A    between atoms: _484  and  _485
REMARK  200  A    between atoms: _485  and  _486
REMARK  201  A    between atoms: _486  and  _487
REMARK  202  A    between atoms: _496  and  _498
REMARK  203  A    between atoms: _498  and  _499
REMARK  204  A    between atoms: _498  and  _501
REMARK  205  A    between atoms: _501  and  _502
REMARK  206  A    between atoms: _507  and  _509
REMARK  207  A    between atoms: _509  and  _510
REMARK  208  A    between atoms: _509  and  _512
REMARK  209  A    between atoms: _512  and  _513
REMARK  210  A    between atoms: _513  and  _514
REMARK  211  A    between atoms: _514  and  _515
REMARK  212  A    between atoms: _524  and  _526
REMARK  213  A    between atoms: _526  and  _527
REMARK  214  A    between atoms: _526  and  _529
REMARK  215  A    between atoms: _529  and  _530
REMARK  216  A    between atoms: _533  and  _535
REMARK  217  A    between atoms: _535  and  _536
REMARK  218  A    between atoms: _535  and  _538
REMARK  219  A    between atoms: _538  and  _539
REMARK                            x       y       z     vdW  Elec       q    Type
REMARK                         _______ _______ _______ _____ _____    ______ ____
ROOT
ATOM      1  C   HIS A   1      12.497 -10.328  28.862  0.00  0.00    +0.239 C 
ATOM      2  N   PHE A   2      13.048  -9.178  29.220  0.00  0.00    -0.298 N 
ATOM      3  H   PHE A   2      13.996  -9.183  29.649  0.00  0.00    +0.150 HD
ATOM      4  O   HIS A   1      11.404 -10.405  28.314  0.00  0.00    -0.274 OA
ENDROOT
BRANCH   1   5
ATOM      5  CA  HIS A   1      13.325 -11.590  29.166  0.00  0.00    +0.151 C 
BRANCH   5   6
ATOM      6  N   HIS A   1      14.710 -11.437  28.693  0.00  0.00    -0.238 NA
ATOM      7  H   HIS A   1      15.486 -11.532  29.378  0.00  0.00    +0.142 HD
ENDBRANCH   5   6
BRANCH   5   8
ATOM      8  CB  HIS A   1      13.291 -11.903  30.668  0.00  0.00    +0.074 C 
BRANCH   8   9
ATOM      9  CG  HIS A   1      11.962 -11.644  31.305  0.00  0.00    +0.082 A 
ATOM     10  CD2 HIS A   1      11.564 -10.695  32.186  0.00  0.00    +0.115 A 
ATOM     11  NE2 HIS A   1      10.228 -10.904  32.436  0.00  0.00    -0.221 NA
ATOM     12  CE1 HIS A   1       9.822 -11.955  31.744  0.00  0.00    +0.199 A 
ATOM     13  ND1 HIS A   1      10.847 -12.419  31.048  0.00  0.00    -0.227 NA
ENDBRANCH   8   9
ENDBRANCH   5   8
ENDBRANCH   1   5
BRANCH   2  14
ATOM     14  CA  PHE A   2      12.370  -7.918  29.032  0.00  0.00    +0.141 C 
BRANCH  14  15
ATOM     15  C   PHE A   2      12.148  -7.484  27.557  0.00  0.00    +0.227 C 
ATOM     16  O   PHE A   2      11.123  -6.846  27.258  0.00  0.00    -0.286 OA
ENDBRANCH  14  15
BRANCH  14  17
ATOM     17  CB  PHE A   2      13.007  -6.826  29.901  0.00  0.00    +0.054 C 
BRANCH  17  18
ATOM     18  CG  PHE A   2      12.781  -7.026  31.415  0.00  0.00    -0.020 A 
ATOM     19  CD2 PHE A   2      13.865  -7.078  32.291  0.00  0.00    -0.004 A 
ATOM     20  CE2 PHE A   2      13.682  -7.243  33.665  0.00  0.00    -0.000 A 
ATOM     21  CZ  PHE A   2      12.406  -7.369  34.183  0.00  0.00    -0.000 A 
ATOM     22  CE1 PHE A   2      11.284  -7.325  33.318  0.00  0.00    -0.000 A 
ATOM     23  CD1 PHE A   2      11.485  -7.157  31.932  0.00  0.00    -0.004 A 
ENDBRANCH  17  18
ENDBRANCH  14  17
ENDBRANCH   2  14
TORSDOF 8
REMARK  Name = ../refined-set-2016/3ivg/3ivg_pocket.pdb
REMARK  219 active torsions:
REMARK  status: ('A' for Active; 'I' for Inactive)
REMARK    1  A    between atoms: _1  and  _3
REMARK    2  A    between atoms: _3  and  _4
REMARK    3  A    between atoms: _3  and  _6
REMARK    4  A    between atoms: _6  and  _7
REMARK    5  A    between atoms: _10  and  _12
REMARK    6  A    between atoms: _12  and  _13
REMARK    7  A    between atoms: _12  and  _15
REMARK    8  A    between atoms: _19  and  _20
REMARK    9  A    between atoms: _25  and  _27
REMARK   10  A    between atoms: _27  and  _28
REMARK   11  A    between atoms: _27  and  _30
REMARK   12  A    between atoms: _30  and  _31
REMARK   13  A    between atoms: _34  and  _36
REMARK   14  A    between atoms: _36  and  _37
REMARK   15  A    between atoms: _36  and  _39
REMARK   16  A    between atoms: _39  and  _40
REMARK   17  A    between atoms: _40  and  _41
REMARK   18  A    between atoms: _43  and  _45
REMARK   19  A    between atoms: _45  and  _46
REMARK   20  A    between atoms: _48  and  _50
REMARK   21  A    between atoms: _50  and  _51
REMARK   22  A    between atoms: _54  and  _56
REMARK   23  A    between atoms: _56  and  _57
REMARK   24  A    between atoms: _56  and  _59
REMARK   25  A    between atoms: _59  and  _60
REMARK   26  A    between atoms: _63  and  _65
REMARK   27  A    between atoms: _65  and  _66
REMARK   28  A    between atoms: _65  and  _68
REMARK   29  A    between atoms: _68  and  _69
REMARK   30  A    between atoms: _74  and  _76
REMARK   31  A    between atoms: _76  and  _77
REMARK   32  A    between atoms: _76  and  _79
REMARK   33  A    between atoms: _79  and  _80
REMARK   34  A    between atoms: _80  and  _81
REMARK   35  A    between atoms: _84  and  _86
REMARK   36  A    between atoms: _86  and  _87
REMARK   37  A    between atoms: _89  and  _91
REMARK   38  A    between atoms: _91  and  _92
REMARK   39  A    between atoms: _91  and  _94
REMARK   40  A    between atoms: _94  and  _95
REMARK   41  A    between atoms: _100  and  _102
REMARK   42  A    between atoms: _102  and  _103
REMARK   43  A    between atoms: _102  and  _105
REMARK   44  A    between atoms: _105  and  _106
REMARK   45  A    between atoms: _109  and  _111
REMARK   46  A    between atoms: _111  and  _112
REMARK   47  A    between atoms: _115  and  _117
REMARK   48  A    between atoms: _117  and  _118
REMARK   49  A    between atoms: _117  and  _120
REMARK   50  A    between atoms: _120  and  _121
REMARK   51  A    between atoms: _124  and  _126
REMARK   52  A    between atoms: _126  and  _127
REMARK   53  A    between atoms: _126  and  _129
REMARK   54  A    between atoms: _132  and  _134
REMARK   55  A    between atoms: _134  and  _135
REMARK   56  A    between atoms: _138  and  _140
REMARK   57  A    between atoms: _140  and  _141
REMARK   58  A    between atoms: _140  and  _143
REMARK   59  A    between atoms: _146  and  _148
REMARK   60  A    between atoms: _148  and  _149
REMARK   61  A    between atoms: _148  and  _151
REMARK   62  A    between atoms: _151  and  _152
REMARK   63  A    between atoms: _154  and  _156
REMARK   64  A    between atoms: _156  and  _157
REMARK   65  A    between atoms: _156  and  _159
REMARK   66  A    between atoms: _159  and  _160
REMARK   67  A    between atoms: _163  and  _165
REMARK   68  A    between atoms: _165  and  _166
REMARK   69  A    between atoms: _165  and  _168
REMARK   70  A    between atoms: _168  and  _169
REMARK   71  A    between atoms: _175  and  _177
REMARK   72  A    between atoms: _177  and  _178
REMARK   73  A    between atoms: _177  and  _180
REMARK   74  A    between atoms: _183  and  _185
REMARK   75  A    between atoms: _185  and  _186
REMARK   76  A    between atoms: _185  and  _188
REMARK   77  A    between atoms: _188  and  _189
REMARK   78  A    between atoms: _194  and  _196
REMARK   79  A    between atoms: _196  and  _197
REMARK   80  A    between atoms: _196  and  _199
REMARK   81  A    between atoms: _199  and  _200
REMARK   82  A    between atoms: _200  and  _201
REMARK   83  A    between atoms: _206  and  _208
REMARK   84  A    between atoms: _208  and  _209
REMARK   85  A    between atoms: _208  and  _211
REMARK   86  A    between atoms: _211  and  _212
REMARK   87  A    between atoms: _212  and  _213
REMARK   88  A    between atoms: _215  and  _217
REMARK   89  A    between atoms: _217  and  _218
REMARK   90  A    between atoms: _217  and  _220
REMARK   91  A    between atoms: _220  and  _221
REMARK   92  A    between atoms: _226  and  _228
REMARK   93  A    between atoms: _228  and  _229
REMARK   94  A    between atoms: _228  and  _231
REMARK   95  A    between atoms: _231  and  _232
REMARK   96  A    between atoms: _238  and  _240
REMARK   97  A    between atoms: _240  and  _241
REMARK   98  A    between atoms: _243  and  _245
REMARK   99  A    between atoms: _245  and  _246
REMARK  100  A    between atoms: _245  and  _248
REMARK  101  A    between atoms: _251  and  _253
REMARK  102  A    between atoms: _253  and  _254
REMARK  103  A    between atoms: _253  and  _256
REMARK  104  A    between atoms: _256  and  _257
REMARK  105  A    between atoms: _260  and  _262
REMARK  106  A    between atoms: _262  and  _263
REMARK  107  A    between atoms: _262  and  _265
REMARK  108  A    between atoms: _265  and  _266
REMARK  109  A    between atoms: _269  and  _271
REMARK  110  A    between atoms: _271  and  _272
REMARK  111  A    between atoms: _271  and  _274
REMARK  112  A    between atoms: _277  and  _279
REMARK  113  A    between atoms: _279  and  _280
REMARK  114  A    between atoms: _279  and  _282
REMARK  115  A    between atoms: _285  and  _287
REMARK  116  A    between atoms: _287  and  _288
REMARK  117  A    between atoms: _287  and  _290
REMARK  118  A    between atoms: _290  and  _291
REMARK  119  A    between atoms: _294  and  _296
REMARK  120  A    between atoms: _296  and  _297
REMARK  121  A    between atoms: _296  and  _299
REMARK  122  A    between atoms: _299  and  _300
REMARK  123  A    between atoms: _303  and  _305
REMARK  124  A    between atoms: _305  and  _306
REMARK  125  A    between atoms: _305  and  _308
REMARK  126  A    between atoms: _308  and  _309
REMARK  127  A    between atoms: _315  and  _317
REMARK  128  A    between atoms: _317  and  _318
REMARK  129  A    between atoms: _317  and  _320
REMARK  130  A    between atoms: _320  and  _321
REMARK  131  A    between atoms: _327  and  _329
REMARK  132  A    between atoms: _329  and  _330
REMARK  133  A    between atoms: _332  and  _334
REMARK  134  A    between atoms: _334  and  _335
REMARK  135  A    between atoms: _334  and  _337
REMARK  136  A    between atoms: _337  and  _338
REMARK  137  A    between atoms: _338  and  _339
REMARK  138  A    between atoms: _342  and  _344
REMARK  139  A    between atoms: _344  and  _345
REMARK  140  A    between atoms: _344  and  _347
REMARK  141  A    between atoms: _347  and  _348
REMARK  142  A    between atoms: _348  and  _349
REMARK  143  A    between atoms: _349  and  _350
REMARK  144  A    between atoms: _350  and  _351
REMARK  145  A    between atoms: _355  and  _357
REMARK  146  A    between atoms: _357  and  _358
REMARK  147  A    between atoms: _357  and  _360
REMARK  148  A    between atoms: _360  and  _361
REMARK  149  A    between atoms: _364  and  _366
REMARK  150  A    between atoms: _366  and  _367
REMARK  151  A    between atoms: _366  and  _369
REMARK  152  A    between atoms: _369  and  _370
REMARK  153  A    between atoms: _370  and  _371
REMARK  154  A    between atoms: _376  and  _378
REMARK  155  A    between atoms: _378  and  _379
REMARK  156  A    between atoms: _378  and  _381
REMARK  157  A    between atoms: _381  and  _382
REMARK  158  A    between atoms: _385  and  _387
REMARK  159  A    between atoms: _387  and  _388
REMARK  160  A    between atoms: _390  and  _392
REMARK  161  A    between atoms: _392  and  _393
REMARK  162  A    between atoms: _392  and  _395
REMARK  163  A    between atoms: _399  and  _400
REMARK  164  A    between atoms: _405  and  _407
REMARK  165  A    between atoms: _407  and  _408
REMARK  166  A    between atoms: _407  and  _410
REMARK  167  A    between atoms: _410  and  _411
REMARK  168  A    between atoms: _414  and  _416
REMARK  169  A    between atoms: _416  and  _417
REMARK  170  A    between atoms: _416  and  _419
REMARK  171  A    between atoms: _422  and  _424
REMARK  172  A    between atoms: _424  and  _425
REMARK  173  A    between atoms: _424  and  _427
REMARK  174  A    between atoms: _427  and  _428
REMARK  175  A    between atoms: _428  and  _429
REMARK  176  A    between atoms: _429  and  _430
REMARK  177  A    between atoms: _439  and  _441
REMARK  178  A    between atoms: _441  and  _442
REMARK  179  A    between atoms: _441  and  _444
REMARK  180  A    between atoms: _444  and  _445
REMARK  181  A    between atoms: _448  and  _450
REMARK  182  A    between atoms: _450  and  _451
REMARK  183  A    between atoms: _454  and  _456
REMARK  184  A    between atoms: _456  and  _457
REMARK  185  A    between atoms: _456  and  _459
REMARK  186  A    between atoms: _459  and  _460
REMARK  187  A    between atoms: _460  and  _461
REMARK  188  A    between atoms: _463  and  _465
REMARK  189  A    between atoms: _465  and  _466
REMARK  190  A    between atoms: _465  and  _468
REMARK  191  A    between atoms: _468  and  _469
REMARK  192  A    between atoms: _471  and  _473
REMARK  193  A    between atoms: _473  and  _474
REMARK  194  A    between atoms: _473  and  _476
REMARK  195  A    between atoms: _476  and  _477
REMARK  196  A    between atoms: _479  and  _481
REMARK  197  A    between atoms: _481  and  _482
REMARK  198  A    between atoms: _481  and  _484
REMARK  199  A    between atoms: _484  and  _485
REMARK  200  A    between atoms: _485  and  _486
REMARK  201  A    between atoms: _486  and  _487
REMARK  202  A    between atoms: _496  and  _498
REMARK  203  A    between atoms: _498  and  _499
REMARK  204  A    between atoms: _498  and  _501
REMARK  205  A    between atoms: _501  and  _502
REMARK  206  A    between atoms: _507  and  _509
REMARK  207  A    between atoms: _509  and  _510
REMARK  208  A    between atoms: _509  and  _512
REMARK  209  A    between atoms: _512  and  _513
REMARK  210  A    between atoms: _513  and  _514
REMARK  211  A    between atoms: _514  and  _515
REMARK  212  A    between atoms: _524  and  _526
REMARK  213  A    between atoms: _526  and  _527
REMARK  214  A    between atoms: _526  and  _529
REMARK  215  A    between atoms: _529  and  _530
REMARK  216  A    between atoms: _533  and  _535
REMARK  217  A    between atoms: _535  and  _536
REMARK  218  A    between atoms: _535  and  _538
REMARK  219  A    between atoms: _538  and  _539
REMARK                            x       y       z     vdW  Elec       q    Type
REMARK                         _______ _______ _______ _____ _____    ______ ____
ROOT
ATOM      1  CA  THR A   4       8.063  -6.630  22.112  0.00  0.00    +0.176 C 
ENDROOT
BRANCH   1   4
ATOM      2  C   LEU A   3       7.849  -5.353  24.190  0.00  0.00    +0.241 C 
ATOM      3  O   LEU A   3       7.048  -4.601  23.700  0.00  0.00    -0.273 OA
ATOM      4  N   THR A   4       8.416  -6.360  23.512  0.00  0.00    -0.295 N 
ATOM      5  H   THR A   4       9.119  -6.962  23.986  0.00  0.00    +0.150 HD
BRANCH   2   6
ATOM      6  CA  LEU A   3       8.262  -5.173  25.641  0.00  0.00    +0.149 C 
BRANCH   6   8
ATOM      7  C   VAL A   2       7.549  -7.360  26.430  0.00  0.00    +0.241 C 
ATOM      8  N   LEU A   3       8.525  -6.489  26.239  0.00  0.00    -0.297 N 
ATOM      9  H   LEU A   3       9.495  -6.740  26.517  0.00  0.00    +0.150 HD
ATOM     10  O   VAL A   2       6.391  -7.121  26.098  0.00  0.00    -0.273 OA
BRANCH   7  11
ATOM     11  CA  VAL A   2       7.911  -8.679  27.145  0.00  0.00    +0.148 C 
BRANCH  11  13
ATOM     12  C   GLY A   1       9.080  -9.687  25.300  0.00  0.00    +0.240 C 
ATOM     13  N   VAL A   2       9.093  -9.283  26.558  0.00  0.00    -0.297 N 
ATOM     14  H   VAL A   2       9.954  -9.398  27.130  0.00  0.00    +0.150 HD
ATOM     15  O   GLY A   1       8.091  -9.556  24.574  0.00  0.00    -0.274 OA
BRANCH  12  16
ATOM     16  CA  GLY A   1      10.345 -10.336  24.802  0.00  0.00    +0.169 C 
BRANCH  16  17
ATOM     17  N   GLY A   1      11.539  -9.557  25.129  0.00  0.00    -0.236 NA
ATOM     18  H   GLY A   1      12.292  -9.995  25.697  0.00  0.00    +0.142 HD
ENDBRANCH  16  17
ENDBRANCH  12  16
ENDBRANCH  11  13
BRANCH  11  19
ATOM     19  CB  VAL A   2       8.117  -8.424  28.669  0.00  0.00    +0.027 C 
ATOM     20  CG2 VAL A   2       8.286  -9.761  29.408  0.00  0.00    +0.002 C 
ATOM     21  CG1 VAL A   2       6.933  -7.601  29.261  0.00  0.00    +0.002 C 
ENDBRANCH  11  19
ENDBRANCH   7  11
ENDBRANCH   6   8
BRANCH   6  22
ATOM     22  CB  LEU A   3       9.515  -4.272  25.687  0.00  0.00    +0.029 C 
BRANCH  22  23
ATOM     23  CG  LEU A   3       9.985  -3.690  27.034  0.00  0.00    +0.002 C 
ATOM     24  CD2 LEU A   3       8.835  -3.245  27.787  0.00  0.00    +0.000 C 
ATOM     25  CD1 LEU A   3      10.969  -2.497  26.910  0.00  0.00    +0.000 C 
ENDBRANCH  22  23
ENDBRANCH   6  22
ENDBRANCH   2   6
ENDBRANCH   1   4
BRANCH   1  26
ATOM     26  C   THR A   4       6.607  -7.023  21.998  0.00  0.00    +0.243 C 
ATOM     27  N   VAL A   5       6.161  -7.985  22.813  0.00  0.00    -0.297 N 
ATOM     28  H   VAL A   5       6.826  -8.450  23.463  0.00  0.00    +0.150 HD
ATOM     29  O   THR A   4       5.883  -6.445  21.193  0.00  0.00    -0.273 OA
BRANCH  27  30
ATOM     30  CA  VAL A   5       4.768  -8.394  22.810  0.00  0.00    +0.149 C 
BRANCH  30  31
ATOM     31  C   VAL A   5       3.801  -7.300  23.273  0.00  0.00    +0.241 C 
ATOM     32  N   VAL A   6       4.169  -6.546  24.310  0.00  0.00    -0.297 N 
ATOM     33  H   VAL A   6       5.087  -6.716  24.769  0.00  0.00    +0.150 HD
ATOM     34  O   VAL A   5       2.722  -7.123  22.667  0.00  0.00    -0.273 OA
BRANCH  32  35
ATOM     35  CA  VAL A   6       3.279  -5.459  24.821  0.00  0.00    +0.149 C 
BRANCH  35  36
ATOM     36  C   VAL A   6       3.101  -4.398  23.750  0.00  0.00    +0.241 C 
ATOM     37  O   VAL A   6       2.004  -3.903  23.528  0.00  0.00    -0.273 OA
ATOM     38  N   LEU A   7       4.180  -4.088  23.039  0.00  0.00    -0.298 N 
ATOM     39  H   LEU A   7       5.091  -4.547  23.243  0.00  0.00    +0.150 HD
BRANCH  38  40
ATOM     40  CA  LEU A   7       4.079  -3.096  21.966  0.00  0.00    +0.137 C 
BRANCH  40  41
ATOM     41  C   LEU A   7       3.137  -3.625  20.898  0.00  0.00    +0.227 C 
ATOM     42  O   LEU A   7       2.268  -2.901  20.436  0.00  0.00    -0.286 OA
ENDBRANCH  40  41
BRANCH  40  43
ATOM     43  CB  LEU A   7       5.451  -2.763  21.361  0.00  0.00    +0.028 C 
BRANCH  43  44
ATOM     44  CG  LEU A   7       5.491  -1.862  20.091  0.00  0.00    +0.002 C 
ATOM     45  CD2 LEU A   7       4.930  -0.514  20.400  0.00  0.00    +0.000 C 
ATOM     46  CD1 LEU A   7       6.932  -1.757  19.595  0.00  0.00    +0.000 C 
ENDBRANCH  43  44
ENDBRANCH  40  43
ENDBRANCH  38  40
ENDBRANCH  35  36
BRANCH  35  47
ATOM     47  CB  VAL A   6       3.841  -4.839  26.084  0.00  0.00    +0.027 C 
ATOM     48  CG2 VAL A   6       3.815  -5.863  27.262  0.00  0.00    +0.002 C 
ATOM     49  CG1 VAL A   6       3.131  -3.474  26.431  0.00  0.00    +0.002 C 
ENDBRANCH  35  47
ENDBRANCH  32  35
ENDBRANCH  30  31
BRANCH  30  50
ATOM     50  CB  VAL A   5       4.560  -9.730  23.622  0.00  0.00    +0.027 C 
ATOM     51  CG2 VAL A   5       4.695  -9.496  25.132  0.00  0.00    +0.002 C 
ATOM     52  CG1 VAL A   5       3.194 -10.328  23.327  0.00  0.00    +0.002 C 
ENDBRANCH  30  50
ENDBRANCH  27  30
ENDBRANCH   1  26
BRANCH   1  53
ATOM     53  CB  THR A   4       8.996  -7.661  21.393  0.00  0.00    +0.137 C 
ATOM     54  CG2 THR A   4       8.626  -7.789  19.914  0.00  0.00    +0.034 C 
BRANCH  53  55
ATOM     55  OG1 THR A   4      10.357  -7.227  21.453  0.00  0.00    -0.382 OA
ATOM     56  HG1 THR A   4      10.635  -7.145  22.400  0.00  0.00    +0.210 HD
ENDBRANCH  53  55
ENDBRANCH   1  53
TORSDOF 23
REMARK  Name = ../refined-set-2016/3ivg/3ivg_pocket.pdb
REMARK  219 active torsions:
REMARK  status: ('A' for Active; 'I' for Inactive)
REMARK    1  A    between atoms: _1  and  _3
REMARK    2  A    between atoms: _3  and  _4
REMARK    3  A    between atoms: _3  and  _6
REMARK    4  A    between atoms: _6  and  _7
REMARK    5  A    between atoms: _10  and  _12
REMARK    6  A    between atoms: _12  and  _13
REMARK    7  A    between atoms: _12  and  _15
REMARK    8  A    between atoms: _19  and  _20
REMARK    9  A    between atoms: _25  and  _27
REMARK   10  A    between atoms: _27  and  _28
REMARK   11  A    between atoms: _27  and  _30
REMARK   12  A    between atoms: _30  and  _31
REMARK   13  A    between atoms: _34  and  _36
REMARK   14  A    between atoms: _36  and  _37
REMARK   15  A    between atoms: _36  and  _39
REMARK   16  A    between atoms: _39  and  _40
REMARK   17  A    between atoms: _40  and  _41
REMARK   18  A    between atoms: _43  and  _45
REMARK   19  A    between atoms: _45  and  _46
REMARK   20  A    between atoms: _48  and  _50
REMARK   21  A    between atoms: _50  and  _51
REMARK   22  A    between atoms: _54  and  _56
REMARK   23  A    between atoms: _56  and  _57
REMARK   24  A    between atoms: _56  and  _59
REMARK   25  A    between atoms: _59  and  _60
REMARK   26  A    between atoms: _63  and  _65
REMARK   27  A    between atoms: _65  and  _66
REMARK   28  A    between atoms: _65  and  _68
REMARK   29  A    between atoms: _68  and  _69
REMARK   30  A    between atoms: _74  and  _76
REMARK   31  A    between atoms: _76  and  _77
REMARK   32  A    between atoms: _76  and  _79
REMARK   33  A    between atoms: _79  and  _80
REMARK   34  A    between atoms: _80  and  _81
REMARK   35  A    between atoms: _84  and  _86
REMARK   36  A    between atoms: _86  and  _87
REMARK   37  A    between atoms: _89  and  _91
REMARK   38  A    between atoms: _91  and  _92
REMARK   39  A    between atoms: _91  and  _94
REMARK   40  A    between atoms: _94  and  _95
REMARK   41  A    between atoms: _100  and  _102
REMARK   42  A    between atoms: _102  and  _103
REMARK   43  A    between atoms: _102  and  _105
REMARK   44  A    between atoms: _105  and  _106
REMARK   45  A    between atoms: _109  and  _111
REMARK   46  A    between atoms: _111  and  _112
REMARK   47  A    between atoms: _115  and  _117
REMARK   48  A    between atoms: _117  and  _118
REMARK   49  A    between atoms: _117  and  _120
REMARK   50  A    between atoms: _120  and  _121
REMARK   51  A    between atoms: _124  and  _126
REMARK   52  A    between atoms: _126  and  _127
REMARK   53  A    between atoms: _126  and  _129
REMARK   54  A    between atoms: _132  and  _134
REMARK   55  A    between atoms: _134  and  _135
REMARK   56  A    between atoms: _138  and  _140
REMARK   57  A    between atoms: _140  and  _141
REMARK   58  A    between atoms: _140  and  _143
REMARK   59  A    between atoms: _146  and  _148
REMARK   60  A    between atoms: _148  and  _149
REMARK   61  A    between atoms: _148  and  _151
REMARK   62  A    between atoms: _151  and  _152
REMARK   63  A    between atoms: _154  and  _156
REMARK   64  A    between atoms: _156  and  _157
REMARK   65  A    between atoms: _156  and  _159
REMARK   66  A    between atoms: _159  and  _160
REMARK   67  A    between atoms: _163  and  _165
REMARK   68  A    between atoms: _165  and  _166
REMARK   69  A    between atoms: _165  and  _168
REMARK   70  A    between atoms: _168  and  _169
REMARK   71  A    between atoms: _175  and  _177
REMARK   72  A    between atoms: _177  and  _178
REMARK   73  A    between atoms: _177  and  _180
REMARK   74  A    between atoms: _183  and  _185
REMARK   75  A    between atoms: _185  and  _186
REMARK   76  A    between atoms: _185  and  _188
REMARK   77  A    between atoms: _188  and  _189
REMARK   78  A    between atoms: _194  and  _196
REMARK   79  A    between atoms: _196  and  _197
REMARK   80  A    between atoms: _196  and  _199
REMARK   81  A    between atoms: _199  and  _200
REMARK   82  A    between atoms: _200  and  _201
REMARK   83  A    between atoms: _206  and  _208
REMARK   84  A    between atoms: _208  and  _209
REMARK   85  A    between atoms: _208  and  _211
REMARK   86  A    between atoms: _211  and  _212
REMARK   87  A    between atoms: _212  and  _213
REMARK   88  A    between atoms: _215  and  _217
REMARK   89  A    between atoms: _217  and  _218
REMARK   90  A    between atoms: _217  and  _220
REMARK   91  A    between atoms: _220  and  _221
REMARK   92  A    between atoms: _226  and  _228
REMARK   93  A    between atoms: _228  and  _229
REMARK   94  A    between atoms: _228  and  _231
REMARK   95  A    between atoms: _231  and  _232
REMARK   96  A    between atoms: _238  and  _240
REMARK   97  A    between atoms: _240  and  _241
REMARK   98  A    between atoms: _243  and  _245
REMARK   99  A    between atoms: _245  and  _246
REMARK  100  A    between atoms: _245  and  _248
REMARK  101  A    between atoms: _251  and  _253
REMARK  102  A    between atoms: _253  and  _254
REMARK  103  A    between atoms: _253  and  _256
REMARK  104  A    between atoms: _256  and  _257
REMARK  105  A    between atoms: _260  and  _262
REMARK  106  A    between atoms: _262  and  _263
REMARK  107  A    between atoms: _262  and  _265
REMARK  108  A    between atoms: _265  and  _266
REMARK  109  A    between atoms: _269  and  _271
REMARK  110  A    between atoms: _271  and  _272
REMARK  111  A    between atoms: _271  and  _274
REMARK  112  A    between atoms: _277  and  _279
REMARK  113  A    between atoms: _279  and  _280
REMARK  114  A    between atoms: _279  and  _282
REMARK  115  A    between atoms: _285  and  _287
REMARK  116  A    between atoms: _287  and  _288
REMARK  117  A    between atoms: _287  and  _290
REMARK  118  A    between atoms: _290  and  _291
REMARK  119  A    between atoms: _294  and  _296
REMARK  120  A    between atoms: _296  and  _297
REMARK  121  A    between atoms: _296  and  _299
REMARK  122  A    between atoms: _299  and  _300
REMARK  123  A    between atoms: _303  and  _305
REMARK  124  A    between atoms: _305  and  _306
REMARK  125  A    between atoms: _305  and  _308
REMARK  126  A    between atoms: _308  and  _309
REMARK  127  A    between atoms: _315  and  _317
REMARK  128  A    between atoms: _317  and  _318
REMARK  129  A    between atoms: _317  and  _320
REMARK  130  A    between atoms: _320  and  _321
REMARK  131  A    between atoms: _327  and  _329
REMARK  132  A    between atoms: _329  and  _330
REMARK  133  A    between atoms: _332  and  _334
REMARK  134  A    between atoms: _334  and  _335
REMARK  135  A    between atoms: _334  and  _337
REMARK  136  A    between atoms: _337  and  _338
REMARK  137  A    between atoms: _338  and  _339
REMARK  138  A    between atoms: _342  and  _344
REMARK  139  A    between atoms: _344  and  _345
REMARK  140  A    between atoms: _344  and  _347
REMARK  141  A    between atoms: _347  and  _348
REMARK  142  A    between atoms: _348  and  _349
REMARK  143  A    between atoms: _349  and  _350
REMARK  144  A    between atoms: _350  and  _351
REMARK  145  A    between atoms: _355  and  _357
REMARK  146  A    between atoms: _357  and  _358
REMARK  147  A    between atoms: _357  and  _360
REMARK  148  A    between atoms: _360  and  _361
REMARK  149  A    between atoms: _364  and  _366
REMARK  150  A    between atoms: _366  and  _367
REMARK  151  A    between atoms: _366  and  _369
REMARK  152  A    between atoms: _369  and  _370
REMARK  153  A    between atoms: _370  and  _371
REMARK  154  A    between atoms: _376  and  _378
REMARK  155  A    between atoms: _378  and  _379
REMARK  156  A    between atoms: _378  and  _381
REMARK  157  A    between atoms: _381  and  _382
REMARK  158  A    between atoms: _385  and  _387
REMARK  159  A    between atoms: _387  and  _388
REMARK  160  A    between atoms: _390  and  _392
REMARK  161  A    between atoms: _392  and  _393
REMARK  162  A    between atoms: _392  and  _395
REMARK  163  A    between atoms: _399  and  _400
REMARK  164  A    between atoms: _405  and  _407
REMARK  165  A    between atoms: _407  and  _408
REMARK  166  A    between atoms: _407  and  _410
REMARK  167  A    between atoms: _410  and  _411
REMARK  168  A    between atoms: _414  and  _416
REMARK  169  A    between atoms: _416  and  _417
REMARK  170  A    between atoms: _416  and  _419
REMARK  171  A    between atoms: _422  and  _424
REMARK  172  A    between atoms: _424  and  _425
REMARK  173  A    between atoms: _424  and  _427
REMARK  174  A    between atoms: _427  and  _428
REMARK  175  A    between atoms: _428  and  _429
REMARK  176  A    between atoms: _429  and  _430
REMARK  177  A    between atoms: _439  and  _441
REMARK  178  A    between atoms: _441  and  _442
REMARK  179  A    between atoms: _441  and  _444
REMARK  180  A    between atoms: _444  and  _445
REMARK  181  A    between atoms: _448  and  _450
REMARK  182  A    between atoms: _450  and  _451
REMARK  183  A    between atoms: _454  and  _456
REMARK  184  A    between atoms: _456  and  _457
REMARK  185  A    between atoms: _456  and  _459
REMARK  186  A    between atoms: _459  and  _460
REMARK  187  A    between atoms: _460  and  _461
REMARK  188  A    between atoms: _463  and  _465
REMARK  189  A    between atoms: _465  and  _466
REMARK  190  A    between atoms: _465  and  _468
REMARK  191  A    between atoms: _468  and  _469
REMARK  192  A    between atoms: _471  and  _473
REMARK  193  A    between atoms: _473  and  _474
REMARK  194  A    between atoms: _473  and  _476
REMARK  195  A    between atoms: _476  and  _477
REMARK  196  A    between atoms: _479  and  _481
REMARK  197  A    between atoms: _481  and  _482
REMARK  198  A    between atoms: _481  and  _484
REMARK  199  A    between atoms: _484  and  _485
REMARK  200  A    between atoms: _485  and  _486
REMARK  201  A    between atoms: _486  and  _487
REMARK  202  A    between atoms: _496  and  _498
REMARK  203  A    between atoms: _498  and  _499
REMARK  204  A    between atoms: _498  and  _501
REMARK  205  A    between atoms: _501  and  _502
REMARK  206  A    between atoms: _507  and  _509
REMARK  207  A    between atoms: _509  and  _510
REMARK  208  A    between atoms: _509  and  _512
REMARK  209  A    between atoms: _512  and  _513
REMARK  210  A    between atoms: _513  and  _514
REMARK  211  A    between atoms: _514  and  _515
REMARK  212  A    between atoms: _524  and  _526
REMARK  213  A    between atoms: _526  and  _527
REMARK  214  A    between atoms: _526  and  _529
REMARK  215  A    between atoms: _529  and  _530
REMARK  216  A    between atoms: _533  and  _535
REMARK  217  A    between atoms: _535  and  _536
REMARK  218  A    between atoms: _535  and  _538
REMARK  219  A    between atoms: _538  and  _539
REMARK                            x       y       z     vdW  Elec       q    Type
REMARK                         _______ _______ _______ _____ _____    ______ ____
ROOT
ATOM      1  CA  LEU A   1      -0.662  -5.810  21.753  0.00  0.00    +0.133 C 
ENDROOT
BRANCH   1   2
ATOM      2  N   LEU A   1       0.711  -5.760  21.241  0.00  0.00    -0.239 NA
ATOM      3  H   LEU A   1       1.508  -5.969  21.876  0.00  0.00    +0.142 HD
ENDBRANCH   1   2
BRANCH   1   4
ATOM      4  C   LEU A   1      -1.267  -4.416  21.760  0.00  0.00    +0.224 C 
ATOM      5  O   LEU A   1      -2.427  -4.248  21.383  0.00  0.00    -0.287 OA
ENDBRANCH   1   4
BRANCH   1   6
ATOM      6  CB  LEU A   1      -0.665  -6.364  23.179  0.00  0.00    +0.025 C 
BRANCH   6   7
ATOM      7  CG  LEU A   1      -0.478  -7.867  23.364  0.00  0.00    +0.002 C 
ATOM      8  CD2 LEU A   1      -0.345  -8.139  24.840  0.00  0.00    +0.000 C 
ATOM      9  CD1 LEU A   1      -1.629  -8.698  22.797  0.00  0.00    +0.000 C 
ENDBRANCH   6   7
ENDBRANCH   1   6
TORSDOF 4
REMARK  Name = ../refined-set-2016/3ivg/3ivg_pocket.pdb
REMARK  219 active torsions:
REMARK  status: ('A' for Active; 'I' for Inactive)
REMARK    1  A    between atoms: _1  and  _3
REMARK    2  A    between atoms: _3  and  _4
REMARK    3  A    between atoms: _3  and  _6
REMARK    4  A    between atoms: _6  and  _7
REMARK    5  A    between atoms: _10  and  _12
REMARK    6  A    between atoms: _12  and  _13
REMARK    7  A    between atoms: _12  and  _15
REMARK    8  A    between atoms: _19  and  _20
REMARK    9  A    between atoms: _25  and  _27
REMARK   10  A    between atoms: _27  and  _28
REMARK   11  A    between atoms: _27  and  _30
REMARK   12  A    between atoms: _30  and  _31
REMARK   13  A    between atoms: _34  and  _36
REMARK   14  A    between atoms: _36  and  _37
REMARK   15  A    between atoms: _36  and  _39
REMARK   16  A    between atoms: _39  and  _40
REMARK   17  A    between atoms: _40  and  _41
REMARK   18  A    between atoms: _43  and  _45
REMARK   19  A    between atoms: _45  and  _46
REMARK   20  A    between atoms: _48  and  _50
REMARK   21  A    between atoms: _50  and  _51
REMARK   22  A    between atoms: _54  and  _56
REMARK   23  A    between atoms: _56  and  _57
REMARK   24  A    between atoms: _56  and  _59
REMARK   25  A    between atoms: _59  and  _60
REMARK   26  A    between atoms: _63  and  _65
REMARK   27  A    between atoms: _65  and  _66
REMARK   28  A    between atoms: _65  and  _68
REMARK   29  A    between atoms: _68  and  _69
REMARK   30  A    between atoms: _74  and  _76
REMARK   31  A    between atoms: _76  and  _77
REMARK   32  A    between atoms: _76  and  _79
REMARK   33  A    between atoms: _79  and  _80
REMARK   34  A    between atoms: _80  and  _81
REMARK   35  A    between atoms: _84  and  _86
REMARK   36  A    between atoms: _86  and  _87
REMARK   37  A    between atoms: _89  and  _91
REMARK   38  A    between atoms: _91  and  _92
REMARK   39  A    between atoms: _91  and  _94
REMARK   40  A    between atoms: _94  and  _95
REMARK   41  A    between atoms: _100  and  _102
REMARK   42  A    between atoms: _102  and  _103
REMARK   43  A    between atoms: _102  and  _105
REMARK   44  A    between atoms: _105  and  _106
REMARK   45  A    between atoms: _109  and  _111
REMARK   46  A    between atoms: _111  and  _112
REMARK   47  A    between atoms: _115  and  _117
REMARK   48  A    between atoms: _117  and  _118
REMARK   49  A    between atoms: _117  and  _120
REMARK   50  A    between atoms: _120  and  _121
REMARK   51  A    between atoms: _124  and  _126
REMARK   52  A    between atoms: _126  and  _127
REMARK   53  A    between atoms: _126  and  _129
REMARK   54  A    between atoms: _132  and  _134
REMARK   55  A    between atoms: _134  and  _135
REMARK   56  A    between atoms: _138  and  _140
REMARK   57  A    between atoms: _140  and  _141
REMARK   58  A    between atoms: _140  and  _143
REMARK   59  A    between atoms: _146  and  _148
REMARK   60  A    between atoms: _148  and  _149
REMARK   61  A    between atoms: _148  and  _151
REMARK   62  A    between atoms: _151  and  _152
REMARK   63  A    between atoms: _154  and  _156
REMARK   64  A    between atoms: _156  and  _157
REMARK   65  A    between atoms: _156  and  _159
REMARK   66  A    between atoms: _159  and  _160
REMARK   67  A    between atoms: _163  and  _165
REMARK   68  A    between atoms: _165  and  _166
REMARK   69  A    between atoms: _165  and  _168
REMARK   70  A    between atoms: _168  and  _169
REMARK   71  A    between atoms: _175  and  _177
REMARK   72  A    between atoms: _177  and  _178
REMARK   73  A    between atoms: _177  and  _180
REMARK   74  A    between atoms: _183  and  _185
REMARK   75  A    between atoms: _185  and  _186
REMARK   76  A    between atoms: _185  and  _188
REMARK   77  A    between atoms: _188  and  _189
REMARK   78  A    between atoms: _194  and  _196
REMARK   79  A    between atoms: _196  and  _197
REMARK   80  A    between atoms: _196  and  _199
REMARK   81  A    between atoms: _199  and  _200
REMARK   82  A    between atoms: _200  and  _201
REMARK   83  A    between atoms: _206  and  _208
REMARK   84  A    between atoms: _208  and  _209
REMARK   85  A    between atoms: _208  and  _211
REMARK   86  A    between atoms: _211  and  _212
REMARK   87  A    between atoms: _212  and  _213
REMARK   88  A    between atoms: _215  and  _217
REMARK   89  A    between atoms: _217  and  _218
REMARK   90  A    between atoms: _217  and  _220
REMARK   91  A    between atoms: _220  and  _221
REMARK   92  A    between atoms: _226  and  _228
REMARK   93  A    between atoms: _228  and  _229
REMARK   94  A    between atoms: _228  and  _231
REMARK   95  A    between atoms: _231  and  _232
REMARK   96  A    between atoms: _238  and  _240
REMARK   97  A    between atoms: _240  and  _241
REMARK   98  A    between atoms: _243  and  _245
REMARK   99  A    between atoms: _245  and  _246
REMARK  100  A    between atoms: _245  and  _248
REMARK  101  A    between atoms: _251  and  _253
REMARK  102  A    between atoms: _253  and  _254
REMARK  103  A    between atoms: _253  and  _256
REMARK  104  A    between atoms: _256  and  _257
REMARK  105  A    between atoms: _260  and  _262
REMARK  106  A    between atoms: _262  and  _263
REMARK  107  A    between atoms: _262  and  _265
REMARK  108  A    between atoms: _265  and  _266
REMARK  109  A    between atoms: _269  and  _271
REMARK  110  A    between atoms: _271  and  _272
REMARK  111  A    between atoms: _271  and  _274
REMARK  112  A    between atoms: _277  and  _279
REMARK  113  A    between atoms: _279  and  _280
REMARK  114  A    between atoms: _279  and  _282
REMARK  115  A    between atoms: _285  and  _287
REMARK  116  A    between atoms: _287  and  _288
REMARK  117  A    between atoms: _287  and  _290
REMARK  118  A    between atoms: _290  and  _291
REMARK  119  A    between atoms: _294  and  _296
REMARK  120  A    between atoms: _296  and  _297
REMARK  121  A    between atoms: _296  and  _299
REMARK  122  A    between atoms: _299  and  _300
REMARK  123  A    between atoms: _303  and  _305
REMARK  124  A    between atoms: _305  and  _306
REMARK  125  A    between atoms: _305  and  _308
REMARK  126  A    between atoms: _308  and  _309
REMARK  127  A    between atoms: _315  and  _317
REMARK  128  A    between atoms: _317  and  _318
REMARK  129  A    between atoms: _317  and  _320
REMARK  130  A    between atoms: _320  and  _321
REMARK  131  A    between atoms: _327  and  _329
REMARK  132  A    between atoms: _329  and  _330
REMARK  133  A    between atoms: _332  and  _334
REMARK  134  A    between atoms: _334  and  _335
REMARK  135  A    between atoms: _334  and  _337
REMARK  136  A    between atoms: _337  and  _338
REMARK  137  A    between atoms: _338  and  _339
REMARK  138  A    between atoms: _342  and  _344
REMARK  139  A    between atoms: _344  and  _345
REMARK  140  A    between atoms: _344  and  _347
REMARK  141  A    between atoms: _347  and  _348
REMARK  142  A    between atoms: _348  and  _349
REMARK  143  A    between atoms: _349  and  _350
REMARK  144  A    between atoms: _350  and  _351
REMARK  145  A    between atoms: _355  and  _357
REMARK  146  A    between atoms: _357  and  _358
REMARK  147  A    between atoms: _357  and  _360
REMARK  148  A    between atoms: _360  and  _361
REMARK  149  A    between atoms: _364  and  _366
REMARK  150  A    between atoms: _366  and  _367
REMARK  151  A    between atoms: _366  and  _369
REMARK  152  A    between atoms: _369  and  _370
REMARK  153  A    between atoms: _370  and  _371
REMARK  154  A    between atoms: _376  and  _378
REMARK  155  A    between atoms: _378  and  _379
REMARK  156  A    between atoms: _378  and  _381
REMARK  157  A    between atoms: _381  and  _382
REMARK  158  A    between atoms: _385  and  _387
REMARK  159  A    between atoms: _387  and  _388
REMARK  160  A    between atoms: _390  and  _392
REMARK  161  A    between atoms: _392  and  _393
REMARK  162  A    between atoms: _392  and  _395
REMARK  163  A    between atoms: _399  and  _400
REMARK  164  A    between atoms: _405  and  _407
REMARK  165  A    between atoms: _407  and  _408
REMARK  166  A    between atoms: _407  and  _410
REMARK  167  A    between atoms: _410  and  _411
REMARK  168  A    between atoms: _414  and  _416
REMARK  169  A    between atoms: _416  and  _417
REMARK  170  A    between atoms: _416  and  _419
REMARK  171  A    between atoms: _422  and  _424
REMARK  172  A    between atoms: _424  and  _425
REMARK  173  A    between atoms: _424  and  _427
REMARK  174  A    between atoms: _427  and  _428
REMARK  175  A    between atoms: _428  and  _429
REMARK  176  A    between atoms: _429  and  _430
REMARK  177  A    between atoms: _439  and  _441
REMARK  178  A    between atoms: _441  and  _442
REMARK  179  A    between atoms: _441  and  _444
REMARK  180  A    between atoms: _444  and  _445
REMARK  181  A    between atoms: _448  and  _450
REMARK  182  A    between atoms: _450  and  _451
REMARK  183  A    between atoms: _454  and  _456
REMARK  184  A    between atoms: _456  and  _457
REMARK  185  A    between atoms: _456  and  _459
REMARK  186  A    between atoms: _459  and  _460
REMARK  187  A    between atoms: _460  and  _461
REMARK  188  A    between atoms: _463  and  _465
REMARK  189  A    between atoms: _465  and  _466
REMARK  190  A    between atoms: _465  and  _468
REMARK  191  A    between atoms: _468  and  _469
REMARK  192  A    between atoms: _471  and  _473
REMARK  193  A    between atoms: _473  and  _474
REMARK  194  A    between atoms: _473  and  _476
REMARK  195  A    between atoms: _476  and  _477
REMARK  196  A    between atoms: _479  and  _481
REMARK  197  A    between atoms: _481  and  _482
REMARK  198  A    between atoms: _481  and  _484
REMARK  199  A    between atoms: _484  and  _485
REMARK  200  A    between atoms: _485  and  _486
REMARK  201  A    between atoms: _486  and  _487
REMARK  202  A    between atoms: _496  and  _498
REMARK  203  A    between atoms: _498  and  _499
REMARK  204  A    between atoms: _498  and  _501
REMARK  205  A    between atoms: _501  and  _502
REMARK  206  A    between atoms: _507  and  _509
REMARK  207  A    between atoms: _509  and  _510
REMARK  208  A    between atoms: _509  and  _512
REMARK  209  A    between atoms: _512  and  _513
REMARK  210  A    between atoms: _513  and  _514
REMARK  211  A    between atoms: _514  and  _515
REMARK  212  A    between atoms: _524  and  _526
REMARK  213  A    between atoms: _526  and  _527
REMARK  214  A    between atoms: _526  and  _529
REMARK  215  A    between atoms: _529  and  _530
REMARK  216  A    between atoms: _533  and  _535
REMARK  217  A    between atoms: _535  and  _536
REMARK  218  A    between atoms: _535  and  _538
REMARK  219  A    between atoms: _538  and  _539
REMARK                            x       y       z     vdW  Elec       q    Type
REMARK                         _______ _______ _______ _____ _____    ______ ____
ROOT
ATOM      1  C   GLY A   3       1.584  -4.533  38.750  0.00  0.00    +0.243 C 
ATOM      2  N   GLU A   4       1.636  -3.898  39.926  0.00  0.00    -0.297 N 
ATOM      3  H   GLU A   4       0.755  -3.741  40.456  0.00  0.00    +0.150 HD
ATOM      4  O   GLY A   3       2.561  -4.643  38.012  0.00  0.00    -0.273 OA
ENDROOT
BRANCH   2   5
ATOM      5  CA  GLU A   4       2.918  -3.411  40.494  0.00  0.00    +0.149 C 
BRANCH   5   6
ATOM      6  C   GLU A   4       3.793  -4.566  40.975  0.00  0.00    +0.241 C 
ATOM      7  O   GLU A   4       4.962  -4.365  41.305  0.00  0.00    -0.273 OA
ATOM      8  N   LYS A   5       3.207  -5.760  41.016  0.00  0.00    -0.297 N 
ATOM      9  H   LYS A   5       2.189  -5.816  40.810  0.00  0.00    +0.150 HD
BRANCH   8  10
ATOM     10  CA  LYS A   5       3.923  -7.005  41.337  0.00  0.00    +0.149 C 
BRANCH  10  11
ATOM     11  C   LYS A   5       5.200  -7.105  40.541  0.00  0.00    +0.241 C 
ATOM     12  O   LYS A   5       6.278  -7.290  41.088  0.00  0.00    -0.273 OA
ATOM     13  N   ASP A   6       5.083  -6.923  39.235  0.00  0.00    -0.298 N 
ATOM     14  H   ASP A   6       4.146  -6.751  38.819  0.00  0.00    +0.150 HD
BRANCH  13  15
ATOM     15  CA  ASP A   6       6.251  -6.962  38.385  0.00  0.00    +0.148 C 
BRANCH  15  16
ATOM     16  C   ASP A   6       6.668  -5.525  38.121  0.00  0.00    +0.227 C 
ATOM     17  O   ASP A   6       6.435  -4.984  37.037  0.00  0.00    -0.286 OA
ENDBRANCH  15  16
BRANCH  15  18
ATOM     18  CB  ASP A   6       5.920  -7.731  37.116  0.00  0.00    +0.142 C 
BRANCH  18  19
ATOM     19  CG  ASP A   6       5.677  -9.202  37.407  0.00  0.00    +0.367 C 
ATOM     20  OD2 ASP A   6       6.640  -9.872  37.862  0.00  0.00    -0.246 OA
ATOM     21  OD1 ASP A   6       4.533  -9.657  37.187  0.00  0.00    -0.246 OA
ENDBRANCH  18  19
ENDBRANCH  15  18
ENDBRANCH  13  15
ENDBRANCH  10  11
BRANCH  10  22
ATOM     22  CB  LYS A   5       3.004  -8.210  41.049  0.00  0.00    +0.029 C 
BRANCH  22  23
ATOM     23  CG  LYS A   5       3.690  -9.598  41.145  0.00  0.00    +0.000 C 
BRANCH  23  24
ATOM     24  CD  LYS A   5       3.696 -10.086  42.619  0.00  0.00    -0.024 C 
BRANCH  24  25
ATOM     25  CE  LYS A   5       4.255 -11.476  42.752  0.00  0.00    -0.086 C 
BRANCH  25  26
ATOM     26  NZ  LYS A   5       5.645 -11.383  42.398  0.00  0.00    +0.380 N 
ATOM     27  HZ1 LYS A   5       6.123 -10.723  43.044  0.00  0.00    -0.089 HD
ATOM     28  HZ2 LYS A   5       6.084 -12.323  42.473  0.00  0.00    -0.089 HD
ATOM     29  HZ3 LYS A   5       5.730 -11.036  41.421  0.00  0.00    -0.089 HD
ENDBRANCH  25  26
ENDBRANCH  24  25
ENDBRANCH  23  24
ENDBRANCH  22  23
ENDBRANCH  10  22
ENDBRANCH   8  10
ENDBRANCH   5   6
BRANCH   5  30
ATOM     30  CB  GLU A   4       2.675  -2.460  41.662  0.00  0.00    +0.041 C 
BRANCH  30  31
ATOM     31  CG  GLU A   4       2.007  -1.161  41.252  0.00  0.00    +0.116 C 
BRANCH  31  32
ATOM     32  CD  GLU A   4       1.802  -0.209  42.441  0.00  0.00    +0.365 C 
ATOM     33  OE2 GLU A   4       1.843  -0.657  43.614  0.00  0.00    -0.246 OA
ATOM     34  OE1 GLU A   4       1.608   0.994  42.211  0.00  0.00    -0.246 OA
ENDBRANCH  31  32
ENDBRANCH  30  31
ENDBRANCH   5  30
ENDBRANCH   2   5
BRANCH   1  35
ATOM     35  CA  GLY A   3       0.252  -5.129  38.328  0.00  0.00    +0.176 C 
BRANCH  35  38
ATOM     36  C   PHE A   2      -0.210  -3.913  36.265  0.00  0.00    +0.241 C 
ATOM     37  O   PHE A   2      -0.427  -2.877  36.878  0.00  0.00    -0.273 OA
ATOM     38  N   GLY A   3       0.091  -5.056  36.875  0.00  0.00    -0.295 N 
ATOM     39  H   GLY A   3       0.215  -5.918  36.306  0.00  0.00    +0.150 HD
BRANCH  36  40
ATOM     40  CA  PHE A   2      -0.296  -3.910  34.734  0.00  0.00    +0.153 C 
BRANCH  40  42
ATOM     41  C   PHE A   1      -2.277  -3.287  33.364  0.00  0.00    +0.239 C 
ATOM     42  N   PHE A   2      -1.365  -2.984  34.287  0.00  0.00    -0.297 N 
ATOM     43  H   PHE A   2      -1.405  -2.040  34.721  0.00  0.00    +0.150 HD
ATOM     44  O   PHE A   1      -2.277  -4.337  32.717  0.00  0.00    -0.274 OA
BRANCH  41  45
ATOM     45  CA  PHE A   1      -3.330  -2.205  33.082  0.00  0.00    +0.149 C 
BRANCH  45  46
ATOM     46  N   PHE A   1      -3.427  -1.957  31.623  0.00  0.00    -0.238 NA
ATOM     47  H   PHE A   1      -3.806  -2.698  30.999  0.00  0.00    +0.142 HD
ENDBRANCH  45  46
BRANCH  45  48
ATOM     48  CB  PHE A   1      -4.710  -2.620  33.651  0.00  0.00    +0.053 C 
BRANCH  48  49
ATOM     49  CG  PHE A   1      -5.723  -1.513  33.621  0.00  0.00    -0.020 A 
ATOM     50  CD2 PHE A   1      -6.050  -0.834  34.786  0.00  0.00    -0.004 A 
ATOM     51  CE2 PHE A   1      -6.998   0.237  34.768  0.00  0.00    -0.000 A 
ATOM     52  CZ  PHE A   1      -7.559   0.622  33.541  0.00  0.00    -0.000 A 
ATOM     53  CE1 PHE A   1      -7.224  -0.036  32.357  0.00  0.00    -0.000 A 
ATOM     54  CD1 PHE A   1      -6.305  -1.099  32.393  0.00  0.00    -0.004 A 
ENDBRANCH  48  49
ENDBRANCH  45  48
ENDBRANCH  41  45
ENDBRANCH  40  42
BRANCH  40  55
ATOM     55  CB  PHE A   2       1.056  -3.437  34.168  0.00  0.00    +0.055 C 
BRANCH  55  56
ATOM     56  CG  PHE A   2       1.191  -3.664  32.702  0.00  0.00    -0.020 A 
ATOM     57  CD2 PHE A   2       1.370  -4.964  32.203  0.00  0.00    -0.004 A 
ATOM     58  CE2 PHE A   2       1.441  -5.187  30.812  0.00  0.00    -0.000 A 
ATOM     59  CZ  PHE A   2       1.330  -4.107  29.929  0.00  0.00    -0.000 A 
ATOM     60  CE1 PHE A   2       1.166  -2.795  30.431  0.00  0.00    -0.000 A 
ATOM     61  CD1 PHE A   2       1.124  -2.585  31.819  0.00  0.00    -0.004 A 
ENDBRANCH  55  56
ENDBRANCH  40  55
ENDBRANCH  36  40
ENDBRANCH  35  38
ENDBRANCH   1  35
TORSDOF 26
REMARK  Name = ../refined-set-2016/3ivg/3ivg_pocket.pdb
REMARK  219 active torsions:
REMARK  status: ('A' for Active; 'I' for Inactive)
REMARK    1  A    between atoms: _1  and  _3
REMARK    2  A    between atoms: _3  and  _4
REMARK    3  A    between atoms: _3  and  _6
REMARK    4  A    between atoms: _6  and  _7
REMARK    5  A    between atoms: _10  and  _12
REMARK    6  A    between atoms: _12  and  _13
REMARK    7  A    between atoms: _12  and  _15
REMARK    8  A    between atoms: _19  and  _20
REMARK    9  A    between atoms: _25  and  _27
REMARK   10  A    between atoms: _27  and  _28
REMARK   11  A    between atoms: _27  and  _30
REMARK   12  A    between atoms: _30  and  _31
REMARK   13  A    between atoms: _34  and  _36
REMARK   14  A    between atoms: _36  and  _37
REMARK   15  A    between atoms: _36  and  _39
REMARK   16  A    between atoms: _39  and  _40
REMARK   17  A    between atoms: _40  and  _41
REMARK   18  A    between atoms: _43  and  _45
REMARK   19  A    between atoms: _45  and  _46
REMARK   20  A    between atoms: _48  and  _50
REMARK   21  A    between atoms: _50  and  _51
REMARK   22  A    between atoms: _54  and  _56
REMARK   23  A    between atoms: _56  and  _57
REMARK   24  A    between atoms: _56  and  _59
REMARK   25  A    between atoms: _59  and  _60
REMARK   26  A    between atoms: _63  and  _65
REMARK   27  A    between atoms: _65  and  _66
REMARK   28  A    between atoms: _65  and  _68
REMARK   29  A    between atoms: _68  and  _69
REMARK   30  A    between atoms: _74  and  _76
REMARK   31  A    between atoms: _76  and  _77
REMARK   32  A    between atoms: _76  and  _79
REMARK   33  A    between atoms: _79  and  _80
REMARK   34  A    between atoms: _80  and  _81
REMARK   35  A    between atoms: _84  and  _86
REMARK   36  A    between atoms: _86  and  _87
REMARK   37  A    between atoms: _89  and  _91
REMARK   38  A    between atoms: _91  and  _92
REMARK   39  A    between atoms: _91  and  _94
REMARK   40  A    between atoms: _94  and  _95
REMARK   41  A    between atoms: _100  and  _102
REMARK   42  A    between atoms: _102  and  _103
REMARK   43  A    between atoms: _102  and  _105
REMARK   44  A    between atoms: _105  and  _106
REMARK   45  A    between atoms: _109  and  _111
REMARK   46  A    between atoms: _111  and  _112
REMARK   47  A    between atoms: _115  and  _117
REMARK   48  A    between atoms: _117  and  _118
REMARK   49  A    between atoms: _117  and  _120
REMARK   50  A    between atoms: _120  and  _121
REMARK   51  A    between atoms: _124  and  _126
REMARK   52  A    between atoms: _126  and  _127
REMARK   53  A    between atoms: _126  and  _129
REMARK   54  A    between atoms: _132  and  _134
REMARK   55  A    between atoms: _134  and  _135
REMARK   56  A    between atoms: _138  and  _140
REMARK   57  A    between atoms: _140  and  _141
REMARK   58  A    between atoms: _140  and  _143
REMARK   59  A    between atoms: _146  and  _148
REMARK   60  A    between atoms: _148  and  _149
REMARK   61  A    between atoms: _148  and  _151
REMARK   62  A    between atoms: _151  and  _152
REMARK   63  A    between atoms: _154  and  _156
REMARK   64  A    between atoms: _156  and  _157
REMARK   65  A    between atoms: _156  and  _159
REMARK   66  A    between atoms: _159  and  _160
REMARK   67  A    between atoms: _163  and  _165
REMARK   68  A    between atoms: _165  and  _166
REMARK   69  A    between atoms: _165  and  _168
REMARK   70  A    between atoms: _168  and  _169
REMARK   71  A    between atoms: _175  and  _177
REMARK   72  A    between atoms: _177  and  _178
REMARK   73  A    between atoms: _177  and  _180
REMARK   74  A    between atoms: _183  and  _185
REMARK   75  A    between atoms: _185  and  _186
REMARK   76  A    between atoms: _185  and  _188
REMARK   77  A    between atoms: _188  and  _189
REMARK   78  A    between atoms: _194  and  _196
REMARK   79  A    between atoms: _196  and  _197
REMARK   80  A    between atoms: _196  and  _199
REMARK   81  A    between atoms: _199  and  _200
REMARK   82  A    between atoms: _200  and  _201
REMARK   83  A    between atoms: _206  and  _208
REMARK   84  A    between atoms: _208  and  _209
REMARK   85  A    between atoms: _208  and  _211
REMARK   86  A    between atoms: _211  and  _212
REMARK   87  A    between atoms: _212  and  _213
REMARK   88  A    between atoms: _215  and  _217
REMARK   89  A    between atoms: _217  and  _218
REMARK   90  A    between atoms: _217  and  _220
REMARK   91  A    between atoms: _220  and  _221
REMARK   92  A    between atoms: _226  and  _228
REMARK   93  A    between atoms: _228  and  _229
REMARK   94  A    between atoms: _228  and  _231
REMARK   95  A    between atoms: _231  and  _232
REMARK   96  A    between atoms: _238  and  _240
REMARK   97  A    between atoms: _240  and  _241
REMARK   98  A    between atoms: _243  and  _245
REMARK   99  A    between atoms: _245  and  _246
REMARK  100  A    between atoms: _245  and  _248
REMARK  101  A    between atoms: _251  and  _253
REMARK  102  A    between atoms: _253  and  _254
REMARK  103  A    between atoms: _253  and  _256
REMARK  104  A    between atoms: _256  and  _257
REMARK  105  A    between atoms: _260  and  _262
REMARK  106  A    between atoms: _262  and  _263
REMARK  107  A    between atoms: _262  and  _265
REMARK  108  A    between atoms: _265  and  _266
REMARK  109  A    between atoms: _269  and  _271
REMARK  110  A    between atoms: _271  and  _272
REMARK  111  A    between atoms: _271  and  _274
REMARK  112  A    between atoms: _277  and  _279
REMARK  113  A    between atoms: _279  and  _280
REMARK  114  A    between atoms: _279  and  _282
REMARK  115  A    between atoms: _285  and  _287
REMARK  116  A    between atoms: _287  and  _288
REMARK  117  A    between atoms: _287  and  _290
REMARK  118  A    between atoms: _290  and  _291
REMARK  119  A    between atoms: _294  and  _296
REMARK  120  A    between atoms: _296  and  _297
REMARK  121  A    between atoms: _296  and  _299
REMARK  122  A    between atoms: _299  and  _300
REMARK  123  A    between atoms: _303  and  _305
REMARK  124  A    between atoms: _305  and  _306
REMARK  125  A    between atoms: _305  and  _308
REMARK  126  A    between atoms: _308  and  _309
REMARK  127  A    between atoms: _315  and  _317
REMARK  128  A    between atoms: _317  and  _318
REMARK  129  A    between atoms: _317  and  _320
REMARK  130  A    between atoms: _320  and  _321
REMARK  131  A    between atoms: _327  and  _329
REMARK  132  A    between atoms: _329  and  _330
REMARK  133  A    between atoms: _332  and  _334
REMARK  134  A    between atoms: _334  and  _335
REMARK  135  A    between atoms: _334  and  _337
REMARK  136  A    between atoms: _337  and  _338
REMARK  137  A    between atoms: _338  and  _339
REMARK  138  A    between atoms: _342  and  _344
REMARK  139  A    between atoms: _344  and  _345
REMARK  140  A    between atoms: _344  and  _347
REMARK  141  A    between atoms: _347  and  _348
REMARK  142  A    between atoms: _348  and  _349
REMARK  143  A    between atoms: _349  and  _350
REMARK  144  A    between atoms: _350  and  _351
REMARK  145  A    between atoms: _355  and  _357
REMARK  146  A    between atoms: _357  and  _358
REMARK  147  A    between atoms: _357  and  _360
REMARK  148  A    between atoms: _360  and  _361
REMARK  149  A    between atoms: _364  and  _366
REMARK  150  A    between atoms: _366  and  _367
REMARK  151  A    between atoms: _366  and  _369
REMARK  152  A    between atoms: _369  and  _370
REMARK  153  A    between atoms: _370  and  _371
REMARK  154  A    between atoms: _376  and  _378
REMARK  155  A    between atoms: _378  and  _379
REMARK  156  A    between atoms: _378  and  _381
REMARK  157  A    between atoms: _381  and  _382
REMARK  158  A    between atoms: _385  and  _387
REMARK  159  A    between atoms: _387  and  _388
REMARK  160  A    between atoms: _390  and  _392
REMARK  161  A    between atoms: _392  and  _393
REMARK  162  A    between atoms: _392  and  _395
REMARK  163  A    between atoms: _399  and  _400
REMARK  164  A    between atoms: _405  and  _407
REMARK  165  A    between atoms: _407  and  _408
REMARK  166  A    between atoms: _407  and  _410
REMARK  167  A    between atoms: _410  and  _411
REMARK  168  A    between atoms: _414  and  _416
REMARK  169  A    between atoms: _416  and  _417
REMARK  170  A    between atoms: _416  and  _419
REMARK  171  A    between atoms: _422  and  _424
REMARK  172  A    between atoms: _424  and  _425
REMARK  173  A    between atoms: _424  and  _427
REMARK  174  A    between atoms: _427  and  _428
REMARK  175  A    between atoms: _428  and  _429
REMARK  176  A    between atoms: _429  and  _430
REMARK  177  A    between atoms: _439  and  _441
REMARK  178  A    between atoms: _441  and  _442
REMARK  179  A    between atoms: _441  and  _444
REMARK  180  A    between atoms: _444  and  _445
REMARK  181  A    between atoms: _448  and  _450
REMARK  182  A    between atoms: _450  and  _451
REMARK  183  A    between atoms: _454  and  _456
REMARK  184  A    between atoms: _456  and  _457
REMARK  185  A    between atoms: _456  and  _459
REMARK  186  A    between atoms: _459  and  _460
REMARK  187  A    between atoms: _460  and  _461
REMARK  188  A    between atoms: _463  and  _465
REMARK  189  A    between atoms: _465  and  _466
REMARK  190  A    between atoms: _465  and  _468
REMARK  191  A    between atoms: _468  and  _469
REMARK  192  A    between atoms: _471  and  _473
REMARK  193  A    between atoms: _473  and  _474
REMARK  194  A    between atoms: _473  and  _476
REMARK  195  A    between atoms: _476  and  _477
REMARK  196  A    between atoms: _479  and  _481
REMARK  197  A    between atoms: _481  and  _482
REMARK  198  A    between atoms: _481  and  _484
REMARK  199  A    between atoms: _484  and  _485
REMARK  200  A    between atoms: _485  and  _486
REMARK  201  A    between atoms: _486  and  _487
REMARK  202  A    between atoms: _496  and  _498
REMARK  203  A    between atoms: _498  and  _499
REMARK  204  A    between atoms: _498  and  _501
REMARK  205  A    between atoms: _501  and  _502
REMARK  206  A    between atoms: _507  and  _509
REMARK  207  A    between atoms: _509  and  _510
REMARK  208  A    between atoms: _509  and  _512
REMARK  209  A    between atoms: _512  and  _513
REMARK  210  A    between atoms: _513  and  _514
REMARK  211  A    between atoms: _514  and  _515
REMARK  212  A    between atoms: _524  and  _526
REMARK  213  A    between atoms: _526  and  _527
REMARK  214  A    between atoms: _526  and  _529
REMARK  215  A    between atoms: _529  and  _530
REMARK  216  A    between atoms: _533  and  _535
REMARK  217  A    between atoms: _535  and  _536
REMARK  218  A    between atoms: _535  and  _538
REMARK  219  A    between atoms: _538  and  _539
REMARK                            x       y       z     vdW  Elec       q    Type
REMARK                         _______ _______ _______ _____ _____    ______ ____
ROOT
ATOM      1  CB  GLN A   1       7.591  -5.968  34.120  0.00  0.00    +0.035 C 
ENDROOT
BRANCH   1   2
ATOM      2  CA  GLN A   1       8.491  -4.765  34.107  0.00  0.00    +0.134 C 
BRANCH   2   3
ATOM      3  N   GLN A   1       9.194  -4.666  35.361  0.00  0.00    -0.239 NA
ATOM      4  H   GLN A   1       9.063  -5.403  36.083  0.00  0.00    +0.142 HD
ENDBRANCH   2   3
BRANCH   2   5
ATOM      5  C   GLN A   1       7.643  -3.501  33.879  0.00  0.00    +0.224 C 
ATOM      6  O   GLN A   1       7.650  -2.956  32.790  0.00  0.00    -0.287 OA
ENDBRANCH   2   5
ENDBRANCH   1   2
BRANCH   1   7
ATOM      7  CG  GLN A   1       6.808  -6.170  32.806  0.00  0.00    +0.087 C 
BRANCH   7   8
ATOM      8  CD  GLN A   1       5.824  -7.312  32.964  0.00  0.00    +0.219 C 
ATOM      9  NE2 GLN A   1       4.538  -6.983  33.267  0.00  0.00    -0.329 N 
ATOM     10 HE21 GLN A   1       3.839  -7.731  33.451  0.00  0.00    +0.145 HD
ATOM     11 HE22 GLN A   1       4.254  -5.984  33.315  0.00  0.00    +0.145 HD
ATOM     12  OE1 GLN A   1       6.227  -8.483  32.891  0.00  0.00    -0.275 OA
ENDBRANCH   7   8
ENDBRANCH   1   7
TORSDOF 5
REMARK  Name = ../refined-set-2016/3ivg/3ivg_pocket.pdb
REMARK  219 active torsions:
REMARK  status: ('A' for Active; 'I' for Inactive)
REMARK    1  A    between atoms: _1  and  _3
REMARK    2  A    between atoms: _3  and  _4
REMARK    3  A    between atoms: _3  and  _6
REMARK    4  A    between atoms: _6  and  _7
REMARK    5  A    between atoms: _10  and  _12
REMARK    6  A    between atoms: _12  and  _13
REMARK    7  A    between atoms: _12  and  _15
REMARK    8  A    between atoms: _19  and  _20
REMARK    9  A    between atoms: _25  and  _27
REMARK   10  A    between atoms: _27  and  _28
REMARK   11  A    between atoms: _27  and  _30
REMARK   12  A    between atoms: _30  and  _31
REMARK   13  A    between atoms: _34  and  _36
REMARK   14  A    between atoms: _36  and  _37
REMARK   15  A    between atoms: _36  and  _39
REMARK   16  A    between atoms: _39  and  _40
REMARK   17  A    between atoms: _40  and  _41
REMARK   18  A    between atoms: _43  and  _45
REMARK   19  A    between atoms: _45  and  _46
REMARK   20  A    between atoms: _48  and  _50
REMARK   21  A    between atoms: _50  and  _51
REMARK   22  A    between atoms: _54  and  _56
REMARK   23  A    between atoms: _56  and  _57
REMARK   24  A    between atoms: _56  and  _59
REMARK   25  A    between atoms: _59  and  _60
REMARK   26  A    between atoms: _63  and  _65
REMARK   27  A    between atoms: _65  and  _66
REMARK   28  A    between atoms: _65  and  _68
REMARK   29  A    between atoms: _68  and  _69
REMARK   30  A    between atoms: _74  and  _76
REMARK   31  A    between atoms: _76  and  _77
REMARK   32  A    between atoms: _76  and  _79
REMARK   33  A    between atoms: _79  and  _80
REMARK   34  A    between atoms: _80  and  _81
REMARK   35  A    between atoms: _84  and  _86
REMARK   36  A    between atoms: _86  and  _87
REMARK   37  A    between atoms: _89  and  _91
REMARK   38  A    between atoms: _91  and  _92
REMARK   39  A    between atoms: _91  and  _94
REMARK   40  A    between atoms: _94  and  _95
REMARK   41  A    between atoms: _100  and  _102
REMARK   42  A    between atoms: _102  and  _103
REMARK   43  A    between atoms: _102  and  _105
REMARK   44  A    between atoms: _105  and  _106
REMARK   45  A    between atoms: _109  and  _111
REMARK   46  A    between atoms: _111  and  _112
REMARK   47  A    between atoms: _115  and  _117
REMARK   48  A    between atoms: _117  and  _118
REMARK   49  A    between atoms: _117  and  _120
REMARK   50  A    between atoms: _120  and  _121
REMARK   51  A    between atoms: _124  and  _126
REMARK   52  A    between atoms: _126  and  _127
REMARK   53  A    between atoms: _126  and  _129
REMARK   54  A    between atoms: _132  and  _134
REMARK   55  A    between atoms: _134  and  _135
REMARK   56  A    between atoms: _138  and  _140
REMARK   57  A    between atoms: _140  and  _141
REMARK   58  A    between atoms: _140  and  _143
REMARK   59  A    between atoms: _146  and  _148
REMARK   60  A    between atoms: _148  and  _149
REMARK   61  A    between atoms: _148  and  _151
REMARK   62  A    between atoms: _151  and  _152
REMARK   63  A    between atoms: _154  and  _156
REMARK   64  A    between atoms: _156  and  _157
REMARK   65  A    between atoms: _156  and  _159
REMARK   66  A    between atoms: _159  and  _160
REMARK   67  A    between atoms: _163  and  _165
REMARK   68  A    between atoms: _165  and  _166
REMARK   69  A    between atoms: _165  and  _168
REMARK   70  A    between atoms: _168  and  _169
REMARK   71  A    between atoms: _175  and  _177
REMARK   72  A    between atoms: _177  and  _178
REMARK   73  A    between atoms: _177  and  _180
REMARK   74  A    between atoms: _183  and  _185
REMARK   75  A    between atoms: _185  and  _186
REMARK   76  A    between atoms: _185  and  _188
REMARK   77  A    between atoms: _188  and  _189
REMARK   78  A    between atoms: _194  and  _196
REMARK   79  A    between atoms: _196  and  _197
REMARK   80  A    between atoms: _196  and  _199
REMARK   81  A    between atoms: _199  and  _200
REMARK   82  A    between atoms: _200  and  _201
REMARK   83  A    between atoms: _206  and  _208
REMARK   84  A    between atoms: _208  and  _209
REMARK   85  A    between atoms: _208  and  _211
REMARK   86  A    between atoms: _211  and  _212
REMARK   87  A    between atoms: _212  and  _213
REMARK   88  A    between atoms: _215  and  _217
REMARK   89  A    between atoms: _217  and  _218
REMARK   90  A    between atoms: _217  and  _220
REMARK   91  A    between atoms: _220  and  _221
REMARK   92  A    between atoms: _226  and  _228
REMARK   93  A    between atoms: _228  and  _229
REMARK   94  A    between atoms: _228  and  _231
REMARK   95  A    between atoms: _231  and  _232
REMARK   96  A    between atoms: _238  and  _240
REMARK   97  A    between atoms: _240  and  _241
REMARK   98  A    between atoms: _243  and  _245
REMARK   99  A    between atoms: _245  and  _246
REMARK  100  A    between atoms: _245  and  _248
REMARK  101  A    between atoms: _251  and  _253
REMARK  102  A    between atoms: _253  and  _254
REMARK  103  A    between atoms: _253  and  _256
REMARK  104  A    between atoms: _256  and  _257
REMARK  105  A    between atoms: _260  and  _262
REMARK  106  A    between atoms: _262  and  _263
REMARK  107  A    between atoms: _262  and  _265
REMARK  108  A    between atoms: _265  and  _266
REMARK  109  A    between atoms: _269  and  _271
REMARK  110  A    between atoms: _271  and  _272
REMARK  111  A    between atoms: _271  and  _274
REMARK  112  A    between atoms: _277  and  _279
REMARK  113  A    between atoms: _279  and  _280
REMARK  114  A    between atoms: _279  and  _282
REMARK  115  A    between atoms: _285  and  _287
REMARK  116  A    between atoms: _287  and  _288
REMARK  117  A    between atoms: _287  and  _290
REMARK  118  A    between atoms: _290  and  _291
REMARK  119  A    between atoms: _294  and  _296
REMARK  120  A    between atoms: _296  and  _297
REMARK  121  A    between atoms: _296  and  _299
REMARK  122  A    between atoms: _299  and  _300
REMARK  123  A    between atoms: _303  and  _305
REMARK  124  A    between atoms: _305  and  _306
REMARK  125  A    between atoms: _305  and  _308
REMARK  126  A    between atoms: _308  and  _309
REMARK  127  A    between atoms: _315  and  _317
REMARK  128  A    between atoms: _317  and  _318
REMARK  129  A    between atoms: _317  and  _320
REMARK  130  A    between atoms: _320  and  _321
REMARK  131  A    between atoms: _327  and  _329
REMARK  132  A    between atoms: _329  and  _330
REMARK  133  A    between atoms: _332  and  _334
REMARK  134  A    between atoms: _334  and  _335
REMARK  135  A    between atoms: _334  and  _337
REMARK  136  A    between atoms: _337  and  _338
REMARK  137  A    between atoms: _338  and  _339
REMARK  138  A    between atoms: _342  and  _344
REMARK  139  A    between atoms: _344  and  _345
REMARK  140  A    between atoms: _344  and  _347
REMARK  141  A    between atoms: _347  and  _348
REMARK  142  A    between atoms: _348  and  _349
REMARK  143  A    between atoms: _349  and  _350
REMARK  144  A    between atoms: _350  and  _351
REMARK  145  A    between atoms: _355  and  _357
REMARK  146  A    between atoms: _357  and  _358
REMARK  147  A    between atoms: _357  and  _360
REMARK  148  A    between atoms: _360  and  _361
REMARK  149  A    between atoms: _364  and  _366
REMARK  150  A    between atoms: _366  and  _367
REMARK  151  A    between atoms: _366  and  _369
REMARK  152  A    between atoms: _369  and  _370
REMARK  153  A    between atoms: _370  and  _371
REMARK  154  A    between atoms: _376  and  _378
REMARK  155  A    between atoms: _378  and  _379
REMARK  156  A    between atoms: _378  and  _381
REMARK  157  A    between atoms: _381  and  _382
REMARK  158  A    between atoms: _385  and  _387
REMARK  159  A    between atoms: _387  and  _388
REMARK  160  A    between atoms: _390  and  _392
REMARK  161  A    between atoms: _392  and  _393
REMARK  162  A    between atoms: _392  and  _395
REMARK  163  A    between atoms: _399  and  _400
REMARK  164  A    between atoms: _405  and  _407
REMARK  165  A    between atoms: _407  and  _408
REMARK  166  A    between atoms: _407  and  _410
REMARK  167  A    between atoms: _410  and  _411
REMARK  168  A    between atoms: _414  and  _416
REMARK  169  A    between atoms: _416  and  _417
REMARK  170  A    between atoms: _416  and  _419
REMARK  171  A    between atoms: _422  and  _424
REMARK  172  A    between atoms: _424  and  _425
REMARK  173  A    between atoms: _424  and  _427
REMARK  174  A    between atoms: _427  and  _428
REMARK  175  A    between atoms: _428  and  _429
REMARK  176  A    between atoms: _429  and  _430
REMARK  177  A    between atoms: _439  and  _441
REMARK  178  A    between atoms: _441  and  _442
REMARK  179  A    between atoms: _441  and  _444
REMARK  180  A    between atoms: _444  and  _445
REMARK  181  A    between atoms: _448  and  _450
REMARK  182  A    between atoms: _450  and  _451
REMARK  183  A    between atoms: _454  and  _456
REMARK  184  A    between atoms: _456  and  _457
REMARK  185  A    between atoms: _456  and  _459
REMARK  186  A    between atoms: _459  and  _460
REMARK  187  A    between atoms: _460  and  _461
REMARK  188  A    between atoms: _463  and  _465
REMARK  189  A    between atoms: _465  and  _466
REMARK  190  A    between atoms: _465  and  _468
REMARK  191  A    between atoms: _468  and  _469
REMARK  192  A    between atoms: _471  and  _473
REMARK  193  A    between atoms: _473  and  _474
REMARK  194  A    between atoms: _473  and  _476
REMARK  195  A    between atoms: _476  and  _477
REMARK  196  A    between atoms: _479  and  _481
REMARK  197  A    between atoms: _481  and  _482
REMARK  198  A    between atoms: _481  and  _484
REMARK  199  A    between atoms: _484  and  _485
REMARK  200  A    between atoms: _485  and  _486
REMARK  201  A    between atoms: _486  and  _487
REMARK  202  A    between atoms: _496  and  _498
REMARK  203  A    between atoms: _498  and  _499
REMARK  204  A    between atoms: _498  and  _501
REMARK  205  A    between atoms: _501  and  _502
REMARK  206  A    between atoms: _507  and  _509
REMARK  207  A    between atoms: _509  and  _510
REMARK  208  A    between atoms: _509  and  _512
REMARK  209  A    between atoms: _512  and  _513
REMARK  210  A    between atoms: _513  and  _514
REMARK  211  A    between atoms: _514  and  _515
REMARK  212  A    between atoms: _524  and  _526
REMARK  213  A    between atoms: _526  and  _527
REMARK  214  A    between atoms: _526  and  _529
REMARK  215  A    between atoms: _529  and  _530
REMARK  216  A    between atoms: _533  and  _535
REMARK  217  A    between atoms: _535  and  _536
REMARK  218  A    between atoms: _535  and  _538
REMARK  219  A    between atoms: _538  and  _539
REMARK                            x       y       z     vdW  Elec       q    Type
REMARK                         _______ _______ _______ _____ _____    ______ ____
ROOT
ATOM      1  CA  ILE A   1       6.639  -0.460  29.979  0.00  0.00    +0.133 C 
ENDROOT
BRANCH   1   2
ATOM      2  N   ILE A   1       7.808  -0.803  30.807  0.00  0.00    -0.239 NA
ATOM      3  H   ILE A   1       7.668  -1.376  31.663  0.00  0.00    +0.142 HD
ENDBRANCH   1   2
BRANCH   1   4
ATOM      4  CB  ILE A   1       5.340  -1.207  30.437  0.00  0.00    +0.023 C 
ATOM      5  CG2 ILE A   1       4.073  -0.642  29.734  0.00  0.00    +0.002 C 
BRANCH   4   6
ATOM      6  CG1 ILE A   1       5.488  -2.743  30.320  0.00  0.00    +0.002 C 
ATOM      7  CD1 ILE A   1       5.438  -3.294  28.936  0.00  0.00    +0.000 C 
ENDBRANCH   4   6
ENDBRANCH   1   4
BRANCH   1   8
ATOM      8  C   ILE A   1       6.399   1.058  29.933  0.00  0.00    +0.224 C 
ATOM      9  O   ILE A   1       6.142   1.631  28.862  0.00  0.00    -0.287 OA
ENDBRANCH   1   8
TORSDOF 4
REMARK  Name = ../refined-set-2016/3ivg/3ivg_pocket.pdb
REMARK  219 active torsions:
REMARK  status: ('A' for Active; 'I' for Inactive)
REMARK    1  A    between atoms: _1  and  _3
REMARK    2  A    between atoms: _3  and  _4
REMARK    3  A    between atoms: _3  and  _6
REMARK    4  A    between atoms: _6  and  _7
REMARK    5  A    between atoms: _10  and  _12
REMARK    6  A    between atoms: _12  and  _13
REMARK    7  A    between atoms: _12  and  _15
REMARK    8  A    between atoms: _19  and  _20
REMARK    9  A    between atoms: _25  and  _27
REMARK   10  A    between atoms: _27  and  _28
REMARK   11  A    between atoms: _27  and  _30
REMARK   12  A    between atoms: _30  and  _31
REMARK   13  A    between atoms: _34  and  _36
REMARK   14  A    between atoms: _36  and  _37
REMARK   15  A    between atoms: _36  and  _39
REMARK   16  A    between atoms: _39  and  _40
REMARK   17  A    between atoms: _40  and  _41
REMARK   18  A    between atoms: _43  and  _45
REMARK   19  A    between atoms: _45  and  _46
REMARK   20  A    between atoms: _48  and  _50
REMARK   21  A    between atoms: _50  and  _51
REMARK   22  A    between atoms: _54  and  _56
REMARK   23  A    between atoms: _56  and  _57
REMARK   24  A    between atoms: _56  and  _59
REMARK   25  A    between atoms: _59  and  _60
REMARK   26  A    between atoms: _63  and  _65
REMARK   27  A    between atoms: _65  and  _66
REMARK   28  A    between atoms: _65  and  _68
REMARK   29  A    between atoms: _68  and  _69
REMARK   30  A    between atoms: _74  and  _76
REMARK   31  A    between atoms: _76  and  _77
REMARK   32  A    between atoms: _76  and  _79
REMARK   33  A    between atoms: _79  and  _80
REMARK   34  A    between atoms: _80  and  _81
REMARK   35  A    between atoms: _84  and  _86
REMARK   36  A    between atoms: _86  and  _87
REMARK   37  A    between atoms: _89  and  _91
REMARK   38  A    between atoms: _91  and  _92
REMARK   39  A    between atoms: _91  and  _94
REMARK   40  A    between atoms: _94  and  _95
REMARK   41  A    between atoms: _100  and  _102
REMARK   42  A    between atoms: _102  and  _103
REMARK   43  A    between atoms: _102  and  _105
REMARK   44  A    between atoms: _105  and  _106
REMARK   45  A    between atoms: _109  and  _111
REMARK   46  A    between atoms: _111  and  _112
REMARK   47  A    between atoms: _115  and  _117
REMARK   48  A    between atoms: _117  and  _118
REMARK   49  A    between atoms: _117  and  _120
REMARK   50  A    between atoms: _120  and  _121
REMARK   51  A    between atoms: _124  and  _126
REMARK   52  A    between atoms: _126  and  _127
REMARK   53  A    between atoms: _126  and  _129
REMARK   54  A    between atoms: _132  and  _134
REMARK   55  A    between atoms: _134  and  _135
REMARK   56  A    between atoms: _138  and  _140
REMARK   57  A    between atoms: _140  and  _141
REMARK   58  A    between atoms: _140  and  _143
REMARK   59  A    between atoms: _146  and  _148
REMARK   60  A    between atoms: _148  and  _149
REMARK   61  A    between atoms: _148  and  _151
REMARK   62  A    between atoms: _151  and  _152
REMARK   63  A    between atoms: _154  and  _156
REMARK   64  A    between atoms: _156  and  _157
REMARK   65  A    between atoms: _156  and  _159
REMARK   66  A    between atoms: _159  and  _160
REMARK   67  A    between atoms: _163  and  _165
REMARK   68  A    between atoms: _165  and  _166
REMARK   69  A    between atoms: _165  and  _168
REMARK   70  A    between atoms: _168  and  _169
REMARK   71  A    between atoms: _175  and  _177
REMARK   72  A    between atoms: _177  and  _178
REMARK   73  A    between atoms: _177  and  _180
REMARK   74  A    between atoms: _183  and  _185
REMARK   75  A    between atoms: _185  and  _186
REMARK   76  A    between atoms: _185  and  _188
REMARK   77  A    between atoms: _188  and  _189
REMARK   78  A    between atoms: _194  and  _196
REMARK   79  A    between atoms: _196  and  _197
REMARK   80  A    between atoms: _196  and  _199
REMARK   81  A    between atoms: _199  and  _200
REMARK   82  A    between atoms: _200  and  _201
REMARK   83  A    between atoms: _206  and  _208
REMARK   84  A    between atoms: _208  and  _209
REMARK   85  A    between atoms: _208  and  _211
REMARK   86  A    between atoms: _211  and  _212
REMARK   87  A    between atoms: _212  and  _213
REMARK   88  A    between atoms: _215  and  _217
REMARK   89  A    between atoms: _217  and  _218
REMARK   90  A    between atoms: _217  and  _220
REMARK   91  A    between atoms: _220  and  _221
REMARK   92  A    between atoms: _226  and  _228
REMARK   93  A    between atoms: _228  and  _229
REMARK   94  A    between atoms: _228  and  _231
REMARK   95  A    between atoms: _231  and  _232
REMARK   96  A    between atoms: _238  and  _240
REMARK   97  A    between atoms: _240  and  _241
REMARK   98  A    between atoms: _243  and  _245
REMARK   99  A    between atoms: _245  and  _246
REMARK  100  A    between atoms: _245  and  _248
REMARK  101  A    between atoms: _251  and  _253
REMARK  102  A    between atoms: _253  and  _254
REMARK  103  A    between atoms: _253  and  _256
REMARK  104  A    between atoms: _256  and  _257
REMARK  105  A    between atoms: _260  and  _262
REMARK  106  A    between atoms: _262  and  _263
REMARK  107  A    between atoms: _262  and  _265
REMARK  108  A    between atoms: _265  and  _266
REMARK  109  A    between atoms: _269  and  _271
REMARK  110  A    between atoms: _271  and  _272
REMARK  111  A    between atoms: _271  and  _274
REMARK  112  A    between atoms: _277  and  _279
REMARK  113  A    between atoms: _279  and  _280
REMARK  114  A    between atoms: _279  and  _282
REMARK  115  A    between atoms: _285  and  _287
REMARK  116  A    between atoms: _287  and  _288
REMARK  117  A    between atoms: _287  and  _290
REMARK  118  A    between atoms: _290  and  _291
REMARK  119  A    between atoms: _294  and  _296
REMARK  120  A    between atoms: _296  and  _297
REMARK  121  A    between atoms: _296  and  _299
REMARK  122  A    between atoms: _299  and  _300
REMARK  123  A    between atoms: _303  and  _305
REMARK  124  A    between atoms: _305  and  _306
REMARK  125  A    between atoms: _305  and  _308
REMARK  126  A    between atoms: _308  and  _309
REMARK  127  A    between atoms: _315  and  _317
REMARK  128  A    between atoms: _317  and  _318
REMARK  129  A    between atoms: _317  and  _320
REMARK  130  A    between atoms: _320  and  _321
REMARK  131  A    between atoms: _327  and  _329
REMARK  132  A    between atoms: _329  and  _330
REMARK  133  A    between atoms: _332  and  _334
REMARK  134  A    between atoms: _334  and  _335
REMARK  135  A    between atoms: _334  and  _337
REMARK  136  A    between atoms: _337  and  _338
REMARK  137  A    between atoms: _338  and  _339
REMARK  138  A    between atoms: _342  and  _344
REMARK  139  A    between atoms: _344  and  _345
REMARK  140  A    between atoms: _344  and  _347
REMARK  141  A    between atoms: _347  and  _348
REMARK  142  A    between atoms: _348  and  _349
REMARK  143  A    between atoms: _349  and  _350
REMARK  144  A    between atoms: _350  and  _351
REMARK  145  A    between atoms: _355  and  _357
REMARK  146  A    between atoms: _357  and  _358
REMARK  147  A    between atoms: _357  and  _360
REMARK  148  A    between atoms: _360  and  _361
REMARK  149  A    between atoms: _364  and  _366
REMARK  150  A    between atoms: _366  and  _367
REMARK  151  A    between atoms: _366  and  _369
REMARK  152  A    between atoms: _369  and  _370
REMARK  153  A    between atoms: _370  and  _371
REMARK  154  A    between atoms: _376  and  _378
REMARK  155  A    between atoms: _378  and  _379
REMARK  156  A    between atoms: _378  and  _381
REMARK  157  A    between atoms: _381  and  _382
REMARK  158  A    between atoms: _385  and  _387
REMARK  159  A    between atoms: _387  and  _388
REMARK  160  A    between atoms: _390  and  _392
REMARK  161  A    between atoms: _392  and  _393
REMARK  162  A    between atoms: _392  and  _395
REMARK  163  A    between atoms: _399  and  _400
REMARK  164  A    between atoms: _405  and  _407
REMARK  165  A    between atoms: _407  and  _408
REMARK  166  A    between atoms: _407  and  _410
REMARK  167  A    between atoms: _410  and  _411
REMARK  168  A    between atoms: _414  and  _416
REMARK  169  A    between atoms: _416  and  _417
REMARK  170  A    between atoms: _416  and  _419
REMARK  171  A    between atoms: _422  and  _424
REMARK  172  A    between atoms: _424  and  _425
REMARK  173  A    between atoms: _424  and  _427
REMARK  174  A    between atoms: _427  and  _428
REMARK  175  A    between atoms: _428  and  _429
REMARK  176  A    between atoms: _429  and  _430
REMARK  177  A    between atoms: _439  and  _441
REMARK  178  A    between atoms: _441  and  _442
REMARK  179  A    between atoms: _441  and  _444
REMARK  180  A    between atoms: _444  and  _445
REMARK  181  A    between atoms: _448  and  _450
REMARK  182  A    between atoms: _450  and  _451
REMARK  183  A    between atoms: _454  and  _456
REMARK  184  A    between atoms: _456  and  _457
REMARK  185  A    between atoms: _456  and  _459
REMARK  186  A    between atoms: _459  and  _460
REMARK  187  A    between atoms: _460  and  _461
REMARK  188  A    between atoms: _463  and  _465
REMARK  189  A    between atoms: _465  and  _466
REMARK  190  A    between atoms: _465  and  _468
REMARK  191  A    between atoms: _468  and  _469
REMARK  192  A    between atoms: _471  and  _473
REMARK  193  A    between atoms: _473  and  _474
REMARK  194  A    between atoms: _473  and  _476
REMARK  195  A    between atoms: _476  and  _477
REMARK  196  A    between atoms: _479  and  _481
REMARK  197  A    between atoms: _481  and  _482
REMARK  198  A    between atoms: _481  and  _484
REMARK  199  A    between atoms: _484  and  _485
REMARK  200  A    between atoms: _485  and  _486
REMARK  201  A    between atoms: _486  and  _487
REMARK  202  A    between atoms: _496  and  _498
REMARK  203  A    between atoms: _498  and  _499
REMARK  204  A    between atoms: _498  and  _501
REMARK  205  A    between atoms: _501  and  _502
REMARK  206  A    between atoms: _507  and  _509
REMARK  207  A    between atoms: _509  and  _510
REMARK  208  A    between atoms: _509  and  _512
REMARK  209  A    between atoms: _512  and  _513
REMARK  210  A    between atoms: _513  and  _514
REMARK  211  A    between atoms: _514  and  _515
REMARK  212  A    between atoms: _524  and  _526
REMARK  213  A    between atoms: _526  and  _527
REMARK  214  A    between atoms: _526  and  _529
REMARK  215  A    between atoms: _529  and  _530
REMARK  216  A    between atoms: _533  and  _535
REMARK  217  A    between atoms: _535  and  _536
REMARK  218  A    between atoms: _535  and  _538
REMARK  219  A    between atoms: _538  and  _539
REMARK                            x       y       z     vdW  Elec       q    Type
REMARK                         _______ _______ _______ _____ _____    ______ ____
ROOT
ATOM      1  CA  THR A   4      -0.284  -5.949  44.351  0.00  0.00    +0.176 C 
ENDROOT
BRANCH   1   3
ATOM      2  C   PRO A   3      -1.452  -3.877  43.735  0.00  0.00    +0.241 C 
ATOM      3  N   THR A   4      -0.371  -4.500  44.178  0.00  0.00    -0.295 N 
ATOM      4  H   THR A   4       0.463  -3.926  44.416  0.00  0.00    +0.150 HD
ATOM      5  O   PRO A   3      -2.457  -4.470  43.330  0.00  0.00    -0.273 OA
BRANCH   2   8
ATOM      6  C   VAL A   2      -1.710  -2.311  41.199  0.00  0.00    +0.244 C 
ATOM      7  N   PRO A   3      -1.981  -1.807  42.429  0.00  0.00    -0.272 N 
ATOM      8  CA  PRO A   3      -1.336  -2.361  43.642  0.00  0.00    +0.152 C 
ATOM      9  CB  PRO A   3      -2.071  -1.649  44.811  0.00  0.00    +0.031 C 
ATOM     10  CG  PRO A   3      -2.511  -0.330  44.212  0.00  0.00    +0.024 C 
ATOM     11  CD  PRO A   3      -2.844  -0.647  42.740  0.00  0.00    +0.094 C 
ATOM     12  O   VAL A   2      -0.885  -3.256  41.017  0.00  0.00    -0.273 OA
BRANCH   6  13
ATOM     13  CA  VAL A   2      -2.455  -1.653  39.995  0.00  0.00    +0.149 C 
BRANCH  13  16
ATOM     14  C   GLY A   1      -1.140   0.041  38.784  0.00  0.00    +0.240 C 
ATOM     15  O   GLY A   1      -1.600   0.989  39.459  0.00  0.00    -0.274 OA
ATOM     16  N   VAL A   2      -1.460  -1.226  38.995  0.00  0.00    -0.297 N 
ATOM     17  H   VAL A   2      -0.986  -1.957  38.427  0.00  0.00    +0.150 HD
BRANCH  14  18
ATOM     18  CA  GLY A   1      -0.181   0.289  37.613  0.00  0.00    +0.169 C 
BRANCH  18  19
ATOM     19  N   GLY A   1      -0.724   1.326  36.751  0.00  0.00    -0.236 NA
ATOM     20  H   GLY A   1      -0.523   2.324  36.966  0.00  0.00    +0.142 HD
ENDBRANCH  18  19
ENDBRANCH  14  18
ENDBRANCH  13  16
BRANCH  13  21
ATOM     21  CB  VAL A   2      -3.460  -2.644  39.371  0.00  0.00    +0.027 C 
ATOM     22  CG2 VAL A   2      -4.474  -3.195  40.403  0.00  0.00    +0.002 C 
ATOM     23  CG1 VAL A   2      -4.198  -1.995  38.142  0.00  0.00    +0.002 C 
ENDBRANCH  13  21
ENDBRANCH   6  13
ENDBRANCH   2   8
ENDBRANCH   1   3
BRANCH   1  24
ATOM     24  C   THR A   4      -1.400  -6.508  45.265  0.00  0.00    +0.243 C 
ATOM     25  O   THR A   4      -1.606  -6.016  46.369  0.00  0.00    -0.273 OA
ATOM     26  N   VAL A   5      -2.142  -7.491  44.752  0.00  0.00    -0.297 N 
ATOM     27  H   VAL A   5      -2.020  -7.721  43.745  0.00  0.00    +0.150 HD
BRANCH  26  28
ATOM     28  CA  VAL A   5      -3.122  -8.268  45.526  0.00  0.00    +0.149 C 
BRANCH  28  29
ATOM     29  C   VAL A   5      -2.303  -9.288  46.347  0.00  0.00    +0.241 C 
ATOM     30  N   ARG A   6      -2.645  -9.407  47.627  0.00  0.00    -0.298 N 
ATOM     31  H   ARG A   6      -3.481  -8.893  47.972  0.00  0.00    +0.150 HD
ATOM     32  O   VAL A   5      -1.362  -9.908  45.836  0.00  0.00    -0.273 OA
BRANCH  30  33
ATOM     33  CA  ARG A   6      -1.888 -10.234  48.567  0.00  0.00    +0.137 C 
BRANCH  33  34
ATOM     34  C   ARG A   6      -2.798 -11.237  49.298  0.00  0.00    +0.227 C 
ATOM     35  O   ARG A   6      -4.000 -10.990  49.531  0.00  0.00    -0.286 OA
ENDBRANCH  33  34
BRANCH  33  36
ATOM     36  CB  ARG A   6      -1.180  -9.337  49.585  0.00  0.00    +0.031 C 
BRANCH  36  37
ATOM     37  CG  ARG A   6      -0.143  -8.433  48.941  0.00  0.00    +0.045 C 
BRANCH  37  38
ATOM     38  CD  ARG A   6       0.441  -7.431  49.963  0.00  0.00    +0.174 C 
BRANCH  38  39
ATOM     39  NE  ARG A   6       1.410  -6.567  49.319  0.00  0.00    -0.265 N 
ATOM     40  HE  ARG A   6       1.114  -5.598  49.086  0.00  0.00    +0.259 HD
ATOM     41  CZ  ARG A   6       2.645  -6.925  49.007  0.00  0.00    +0.342 C 
ATOM     42  NH2 ARG A   6       3.096  -8.164  49.265  0.00  0.00    -0.292 N 
ATOM     43 HH21 ARG A   6       2.471  -8.861  49.718  0.00  0.00    +0.255 HD
ATOM     44 HH22 ARG A   6       4.070  -8.426  49.012  0.00  0.00    +0.255 HD
ATOM     45  NH1 ARG A   6       3.440  -6.038  48.433  0.00  0.00    -0.292 N 
ATOM     46 HH11 ARG A   6       3.091  -5.079  48.235  0.00  0.00    +0.255 HD
ATOM     47 HH12 ARG A   6       4.414  -6.300  48.180  0.00  0.00    +0.255 HD
ENDBRANCH  38  39
ENDBRANCH  37  38
ENDBRANCH  36  37
ENDBRANCH  33  36
ENDBRANCH  30  33
ENDBRANCH  28  29
BRANCH  28  48
ATOM     48  CB  VAL A   5      -4.091  -9.037  44.616  0.00  0.00    +0.027 C 
ATOM     49  CG2 VAL A   5      -5.112  -9.843  45.457  0.00  0.00    +0.002 C 
ATOM     50  CG1 VAL A   5      -4.855  -8.085  43.716  0.00  0.00    +0.002 C 
ENDBRANCH  28  48
ENDBRANCH  26  28
ENDBRANCH   1  24
BRANCH   1  51
ATOM     51  CB  THR A   4       1.109  -6.269  44.899  0.00  0.00    +0.137 C 
ATOM     52  CG2 THR A   4       1.278  -7.754  45.185  0.00  0.00    +0.034 C 
BRANCH  51  53
ATOM     53  OG1 THR A   4       2.073  -5.863  43.920  0.00  0.00    -0.382 OA
ATOM     54  HG1 THR A   4       2.984  -6.061  44.254  0.00  0.00    +0.210 HD
ENDBRANCH  51  53
ENDBRANCH   1  51
TORSDOF 19
REMARK  Name = ../refined-set-2016/3ivg/3ivg_pocket.pdb
REMARK  219 active torsions:
REMARK  status: ('A' for Active; 'I' for Inactive)
REMARK    1  A    between atoms: _1  and  _3
REMARK    2  A    between atoms: _3  and  _4
REMARK    3  A    between atoms: _3  and  _6
REMARK    4  A    between atoms: _6  and  _7
REMARK    5  A    between atoms: _10  and  _12
REMARK    6  A    between atoms: _12  and  _13
REMARK    7  A    between atoms: _12  and  _15
REMARK    8  A    between atoms: _19  and  _20
REMARK    9  A    between atoms: _25  and  _27
REMARK   10  A    between atoms: _27  and  _28
REMARK   11  A    between atoms: _27  and  _30
REMARK   12  A    between atoms: _30  and  _31
REMARK   13  A    between atoms: _34  and  _36
REMARK   14  A    between atoms: _36  and  _37
REMARK   15  A    between atoms: _36  and  _39
REMARK   16  A    between atoms: _39  and  _40
REMARK   17  A    between atoms: _40  and  _41
REMARK   18  A    between atoms: _43  and  _45
REMARK   19  A    between atoms: _45  and  _46
REMARK   20  A    between atoms: _48  and  _50
REMARK   21  A    between atoms: _50  and  _51
REMARK   22  A    between atoms: _54  and  _56
REMARK   23  A    between atoms: _56  and  _57
REMARK   24  A    between atoms: _56  and  _59
REMARK   25  A    between atoms: _59  and  _60
REMARK   26  A    between atoms: _63  and  _65
REMARK   27  A    between atoms: _65  and  _66
REMARK   28  A    between atoms: _65  and  _68
REMARK   29  A    between atoms: _68  and  _69
REMARK   30  A    between atoms: _74  and  _76
REMARK   31  A    between atoms: _76  and  _77
REMARK   32  A    between atoms: _76  and  _79
REMARK   33  A    between atoms: _79  and  _80
REMARK   34  A    between atoms: _80  and  _81
REMARK   35  A    between atoms: _84  and  _86
REMARK   36  A    between atoms: _86  and  _87
REMARK   37  A    between atoms: _89  and  _91
REMARK   38  A    between atoms: _91  and  _92
REMARK   39  A    between atoms: _91  and  _94
REMARK   40  A    between atoms: _94  and  _95
REMARK   41  A    between atoms: _100  and  _102
REMARK   42  A    between atoms: _102  and  _103
REMARK   43  A    between atoms: _102  and  _105
REMARK   44  A    between atoms: _105  and  _106
REMARK   45  A    between atoms: _109  and  _111
REMARK   46  A    between atoms: _111  and  _112
REMARK   47  A    between atoms: _115  and  _117
REMARK   48  A    between atoms: _117  and  _118
REMARK   49  A    between atoms: _117  and  _120
REMARK   50  A    between atoms: _120  and  _121
REMARK   51  A    between atoms: _124  and  _126
REMARK   52  A    between atoms: _126  and  _127
REMARK   53  A    between atoms: _126  and  _129
REMARK   54  A    between atoms: _132  and  _134
REMARK   55  A    between atoms: _134  and  _135
REMARK   56  A    between atoms: _138  and  _140
REMARK   57  A    between atoms: _140  and  _141
REMARK   58  A    between atoms: _140  and  _143
REMARK   59  A    between atoms: _146  and  _148
REMARK   60  A    between atoms: _148  and  _149
REMARK   61  A    between atoms: _148  and  _151
REMARK   62  A    between atoms: _151  and  _152
REMARK   63  A    between atoms: _154  and  _156
REMARK   64  A    between atoms: _156  and  _157
REMARK   65  A    between atoms: _156  and  _159
REMARK   66  A    between atoms: _159  and  _160
REMARK   67  A    between atoms: _163  and  _165
REMARK   68  A    between atoms: _165  and  _166
REMARK   69  A    between atoms: _165  and  _168
REMARK   70  A    between atoms: _168  and  _169
REMARK   71  A    between atoms: _175  and  _177
REMARK   72  A    between atoms: _177  and  _178
REMARK   73  A    between atoms: _177  and  _180
REMARK   74  A    between atoms: _183  and  _185
REMARK   75  A    between atoms: _185  and  _186
REMARK   76  A    between atoms: _185  and  _188
REMARK   77  A    between atoms: _188  and  _189
REMARK   78  A    between atoms: _194  and  _196
REMARK   79  A    between atoms: _196  and  _197
REMARK   80  A    between atoms: _196  and  _199
REMARK   81  A    between atoms: _199  and  _200
REMARK   82  A    between atoms: _200  and  _201
REMARK   83  A    between atoms: _206  and  _208
REMARK   84  A    between atoms: _208  and  _209
REMARK   85  A    between atoms: _208  and  _211
REMARK   86  A    between atoms: _211  and  _212
REMARK   87  A    between atoms: _212  and  _213
REMARK   88  A    between atoms: _215  and  _217
REMARK   89  A    between atoms: _217  and  _218
REMARK   90  A    between atoms: _217  and  _220
REMARK   91  A    between atoms: _220  and  _221
REMARK   92  A    between atoms: _226  and  _228
REMARK   93  A    between atoms: _228  and  _229
REMARK   94  A    between atoms: _228  and  _231
REMARK   95  A    between atoms: _231  and  _232
REMARK   96  A    between atoms: _238  and  _240
REMARK   97  A    between atoms: _240  and  _241
REMARK   98  A    between atoms: _243  and  _245
REMARK   99  A    between atoms: _245  and  _246
REMARK  100  A    between atoms: _245  and  _248
REMARK  101  A    between atoms: _251  and  _253
REMARK  102  A    between atoms: _253  and  _254
REMARK  103  A    between atoms: _253  and  _256
REMARK  104  A    between atoms: _256  and  _257
REMARK  105  A    between atoms: _260  and  _262
REMARK  106  A    between atoms: _262  and  _263
REMARK  107  A    between atoms: _262  and  _265
REMARK  108  A    between atoms: _265  and  _266
REMARK  109  A    between atoms: _269  and  _271
REMARK  110  A    between atoms: _271  and  _272
REMARK  111  A    between atoms: _271  and  _274
REMARK  112  A    between atoms: _277  and  _279
REMARK  113  A    between atoms: _279  and  _280
REMARK  114  A    between atoms: _279  and  _282
REMARK  115  A    between atoms: _285  and  _287
REMARK  116  A    between atoms: _287  and  _288
REMARK  117  A    between atoms: _287  and  _290
REMARK  118  A    between atoms: _290  and  _291
REMARK  119  A    between atoms: _294  and  _296
REMARK  120  A    between atoms: _296  and  _297
REMARK  121  A    between atoms: _296  and  _299
REMARK  122  A    between atoms: _299  and  _300
REMARK  123  A    between atoms: _303  and  _305
REMARK  124  A    between atoms: _305  and  _306
REMARK  125  A    between atoms: _305  and  _308
REMARK  126  A    between atoms: _308  and  _309
REMARK  127  A    between atoms: _315  and  _317
REMARK  128  A    between atoms: _317  and  _318
REMARK  129  A    between atoms: _317  and  _320
REMARK  130  A    between atoms: _320  and  _321
REMARK  131  A    between atoms: _327  and  _329
REMARK  132  A    between atoms: _329  and  _330
REMARK  133  A    between atoms: _332  and  _334
REMARK  134  A    between atoms: _334  and  _335
REMARK  135  A    between atoms: _334  and  _337
REMARK  136  A    between atoms: _337  and  _338
REMARK  137  A    between atoms: _338  and  _339
REMARK  138  A    between atoms: _342  and  _344
REMARK  139  A    between atoms: _344  and  _345
REMARK  140  A    between atoms: _344  and  _347
REMARK  141  A    between atoms: _347  and  _348
REMARK  142  A    between atoms: _348  and  _349
REMARK  143  A    between atoms: _349  and  _350
REMARK  144  A    between atoms: _350  and  _351
REMARK  145  A    between atoms: _355  and  _357
REMARK  146  A    between atoms: _357  and  _358
REMARK  147  A    between atoms: _357  and  _360
REMARK  148  A    between atoms: _360  and  _361
REMARK  149  A    between atoms: _364  and  _366
REMARK  150  A    between atoms: _366  and  _367
REMARK  151  A    between atoms: _366  and  _369
REMARK  152  A    between atoms: _369  and  _370
REMARK  153  A    between atoms: _370  and  _371
REMARK  154  A    between atoms: _376  and  _378
REMARK  155  A    between atoms: _378  and  _379
REMARK  156  A    between atoms: _378  and  _381
REMARK  157  A    between atoms: _381  and  _382
REMARK  158  A    between atoms: _385  and  _387
REMARK  159  A    between atoms: _387  and  _388
REMARK  160  A    between atoms: _390  and  _392
REMARK  161  A    between atoms: _392  and  _393
REMARK  162  A    between atoms: _392  and  _395
REMARK  163  A    between atoms: _399  and  _400
REMARK  164  A    between atoms: _405  and  _407
REMARK  165  A    between atoms: _407  and  _408
REMARK  166  A    between atoms: _407  and  _410
REMARK  167  A    between atoms: _410  and  _411
REMARK  168  A    between atoms: _414  and  _416
REMARK  169  A    between atoms: _416  and  _417
REMARK  170  A    between atoms: _416  and  _419
REMARK  171  A    between atoms: _422  and  _424
REMARK  172  A    between atoms: _424  and  _425
REMARK  173  A    between atoms: _424  and  _427
REMARK  174  A    between atoms: _427  and  _428
REMARK  175  A    between atoms: _428  and  _429
REMARK  176  A    between atoms: _429  and  _430
REMARK  177  A    between atoms: _439  and  _441
REMARK  178  A    between atoms: _441  and  _442
REMARK  179  A    between atoms: _441  and  _444
REMARK  180  A    between atoms: _444  and  _445
REMARK  181  A    between atoms: _448  and  _450
REMARK  182  A    between atoms: _450  and  _451
REMARK  183  A    between atoms: _454  and  _456
REMARK  184  A    between atoms: _456  and  _457
REMARK  185  A    between atoms: _456  and  _459
REMARK  186  A    between atoms: _459  and  _460
REMARK  187  A    between atoms: _460  and  _461
REMARK  188  A    between atoms: _463  and  _465
REMARK  189  A    between atoms: _465  and  _466
REMARK  190  A    between atoms: _465  and  _468
REMARK  191  A    between atoms: _468  and  _469
REMARK  192  A    between atoms: _471  and  _473
REMARK  193  A    between atoms: _473  and  _474
REMARK  194  A    between atoms: _473  and  _476
REMARK  195  A    between atoms: _476  and  _477
REMARK  196  A    between atoms: _479  and  _481
REMARK  197  A    between atoms: _481  and  _482
REMARK  198  A    between atoms: _481  and  _484
REMARK  199  A    between atoms: _484  and  _485
REMARK  200  A    between atoms: _485  and  _486
REMARK  201  A    between atoms: _486  and  _487
REMARK  202  A    between atoms: _496  and  _498
REMARK  203  A    between atoms: _498  and  _499
REMARK  204  A    between atoms: _498  and  _501
REMARK  205  A    between atoms: _501  and  _502
REMARK  206  A    between atoms: _507  and  _509
REMARK  207  A    between atoms: _509  and  _510
REMARK  208  A    between atoms: _509  and  _512
REMARK  209  A    between atoms: _512  and  _513
REMARK  210  A    between atoms: _513  and  _514
REMARK  211  A    between atoms: _514  and  _515
REMARK  212  A    between atoms: _524  and  _526
REMARK  213  A    between atoms: _526  and  _527
REMARK  214  A    between atoms: _526  and  _529
REMARK  215  A    between atoms: _529  and  _530
REMARK  216  A    between atoms: _533  and  _535
REMARK  217  A    between atoms: _535  and  _536
REMARK  218  A    between atoms: _535  and  _538
REMARK  219  A    between atoms: _538  and  _539
REMARK                            x       y       z     vdW  Elec       q    Type
REMARK                         _______ _______ _______ _____ _____    ______ ____
ROOT
ATOM      1  C   SER A   4       1.235 -16.713  41.735  0.00  0.00    +0.243 C 
ATOM      2  O   SER A   4       0.810 -17.413  42.659  0.00  0.00    -0.273 OA
ATOM      3  N   SER A   5       1.346 -17.147  40.482  0.00  0.00    -0.295 N 
ATOM      4  H   SER A   5       1.688 -16.496  39.747  0.00  0.00    +0.150 HD
ENDROOT
BRANCH   3   5
ATOM      5  CA  SER A   5       0.997 -18.520  40.115  0.00  0.00    +0.178 C 
BRANCH   5   6
ATOM      6  C   SER A   5       2.011 -19.450  40.757  0.00  0.00    +0.243 C 
ATOM      7  O   SER A   5       1.689 -20.577  41.124  0.00  0.00    -0.273 OA
ATOM      8  N   ARG A   6       3.230 -18.944  40.938  0.00  0.00    -0.297 N 
ATOM      9  H   ARG A   6       3.431 -17.974  40.621  0.00  0.00    +0.150 HD
BRANCH   8  10
ATOM     10  CA  ARG A   6       4.300 -19.731  41.578  0.00  0.00    +0.149 C 
BRANCH  10  11
ATOM     11  C   ARG A   6       3.997 -20.159  43.021  0.00  0.00    +0.241 C 
ATOM     12  N   ASN A   7       3.134 -19.415  43.710  0.00  0.00    -0.298 N 
ATOM     13  H   ASN A   7       2.678 -18.602  43.250  0.00  0.00    +0.150 HD
ATOM     14  O   ARG A   6       4.529 -21.167  43.495  0.00  0.00    -0.273 OA
BRANCH  12  15
ATOM     15  CA  ASN A   7       2.819 -19.723  45.100  0.00  0.00    +0.146 C 
BRANCH  15  16
ATOM     16  C   ASN A   7       2.340 -21.150  45.362  0.00  0.00    +0.227 C 
ATOM     17  O   ASN A   7       2.585 -21.701  46.447  0.00  0.00    -0.286 OA
ENDBRANCH  15  16
BRANCH  15  18
ATOM     18  CB  ASN A   7       1.849 -18.710  45.688  0.00  0.00    +0.112 C 
BRANCH  18  19
ATOM     19  CG  ASN A   7       2.437 -17.314  45.738  0.00  0.00    +0.222 C 
ATOM     20  ND2 ASN A   7       1.573 -16.340  45.904  0.00  0.00    -0.329 N 
ATOM     21 HD21 ASN A   7       0.561 -16.555  46.009  0.00  0.00    +0.145 HD
ATOM     22 HD22 ASN A   7       1.901 -15.353  45.931  0.00  0.00    +0.145 HD
ATOM     23  OD1 ASN A   7       3.661 -17.117  45.607  0.00  0.00    -0.275 OA
ENDBRANCH  18  19
ENDBRANCH  15  18
ENDBRANCH  12  15
ENDBRANCH  10  11
BRANCH  10  24
ATOM     24  CB  ARG A   6       5.636 -18.998  41.485  0.00  0.00    +0.033 C 
BRANCH  24  25
ATOM     25  CG  ARG A   6       6.159 -18.919  40.050  0.00  0.00    +0.045 C 
BRANCH  25  26
ATOM     26  CD  ARG A   6       7.560 -18.364  39.977  0.00  0.00    +0.174 C 
BRANCH  26  27
ATOM     27  NE  ARG A   6       7.818 -17.718  38.689  0.00  0.00    -0.265 N 
ATOM     28  CZ  ARG A   6       9.024 -17.409  38.220  0.00  0.00    +0.342 C 
ATOM     29  NH2 ARG A   6      10.115 -17.688  38.924  0.00  0.00    -0.292 N 
ATOM     30 HH21 ARG A   6      10.031 -18.152  39.851  0.00  0.00    +0.255 HD
ATOM     31 HH22 ARG A   6      11.053 -17.442  38.548  0.00  0.00    +0.255 HD
ATOM     32  NH1 ARG A   6       9.137 -16.814  37.034  0.00  0.00    -0.292 N 
ATOM     33 HH11 ARG A   6      10.077 -16.570  36.662  0.00  0.00    +0.255 HD
ATOM     34 HH12 ARG A   6       8.285 -16.593  36.480  0.00  0.00    +0.255 HD
ATOM     35  HE  ARG A   6       6.997 -17.483  38.096  0.00  0.00    +0.259 HD
ENDBRANCH  26  27
ENDBRANCH  25  26
ENDBRANCH  24  25
ENDBRANCH  10  24
ENDBRANCH   8  10
ENDBRANCH   5   6
BRANCH   5  36
ATOM     36  CB  SER A   5       0.958 -18.692  38.582  0.00  0.00    +0.166 C 
BRANCH  36  37
ATOM     37  OG  SER A   5       2.116 -18.128  37.973  0.00  0.00    -0.380 OA
ATOM     38  H   SER A   5       2.160 -17.161  38.183  0.00  0.00    +0.211 HD
ENDBRANCH  36  37
ENDBRANCH   5  36
ENDBRANCH   3   5
BRANCH   1  39
ATOM     39  CA  SER A   4       1.596 -15.256  41.977  0.00  0.00    +0.178 C 
BRANCH  39  41
ATOM     40  C   MET A   3       0.644 -13.541  43.450  0.00  0.00    +0.241 C 
ATOM     41  N   SER A   4       0.791 -14.814  43.113  0.00  0.00    -0.295 N 
ATOM     42  H   SER A   4       0.309 -15.535  43.686  0.00  0.00    +0.150 HD
ATOM     43  O   MET A   3       1.207 -12.644  42.879  0.00  0.00    -0.273 OA
BRANCH  40  44
ATOM     44  CA  MET A   3      -0.241 -13.240  44.655  0.00  0.00    +0.149 C 
BRANCH  44  47
ATOM     45  C   ALA A   2       1.557 -12.416  46.086  0.00  0.00    +0.241 C 
ATOM     46  O   ALA A   2       2.151 -13.497  45.984  0.00  0.00    -0.273 OA
ATOM     47  N   MET A   3       0.366 -12.199  45.524  0.00  0.00    -0.297 N 
ATOM     48  H   MET A   3      -0.136 -11.304  45.694  0.00  0.00    +0.150 HD
BRANCH  45  49
ATOM     49  CA  ALA A   2       2.139 -11.289  46.957  0.00  0.00    +0.149 C 
ATOM     50  CB  ALA A   2       3.293 -10.615  46.269  0.00  0.00    +0.031 C 
BRANCH  49  53
ATOM     51  C   LEU A   1       1.775 -12.398  49.077  0.00  0.00    +0.238 C 
ATOM     52  O   LEU A   1       0.573 -12.506  48.858  0.00  0.00    -0.274 OA
ATOM     53  N   ALA A   2       2.610 -11.849  48.210  0.00  0.00    -0.297 N 
ATOM     54  H   ALA A   2       3.626 -11.818  48.431  0.00  0.00    +0.150 HD
BRANCH  51  55
ATOM     55  CA  LEU A   1       2.383 -12.926  50.392  0.00  0.00    +0.145 C 
BRANCH  55  56
ATOM     56  N   LEU A   1       1.679 -12.388  51.564  0.00  0.00    -0.238 NA
ATOM     57  H   LEU A   1       1.266 -13.041  52.260  0.00  0.00    +0.142 HD
ENDBRANCH  55  56
BRANCH  55  58
ATOM     58  CB  LEU A   1       2.280 -14.453  50.352  0.00  0.00    +0.026 C 
BRANCH  58  59
ATOM     59  CG  LEU A   1       2.989 -15.126  49.182  0.00  0.00    +0.002 C 
ATOM     60  CD2 LEU A   1       4.561 -15.012  49.287  0.00  0.00    +0.000 C 
ATOM     61  CD1 LEU A   1       2.560 -16.609  49.188  0.00  0.00    +0.000 C 
ENDBRANCH  58  59
ENDBRANCH  55  58
ENDBRANCH  51  55
ENDBRANCH  49  53
ENDBRANCH  45  49
ENDBRANCH  44  47
BRANCH  44  62
ATOM     62  CB  MET A   3      -1.649 -12.852  44.210  0.00  0.00    +0.041 C 
BRANCH  62  63
ATOM     63  CG  MET A   3      -2.636 -12.857  45.364  0.00  0.00    +0.060 C 
BRANCH  63  64
ATOM     64  SD  MET A   3      -4.084 -13.746  44.894  0.00  0.00    -0.139 S 
ATOM     65  CE  MET A   3      -5.169 -13.471  46.322  0.00  0.00    +0.069 C 
ENDBRANCH  63  64
ENDBRANCH  62  63
ENDBRANCH  44  62
ENDBRANCH  40  44
ENDBRANCH  39  41
BRANCH  39  66
ATOM     66  CB  SER A   4       3.095 -15.070  42.241  0.00  0.00    +0.166 C 
BRANCH  66  67
ATOM     67  OG  SER A   4       3.907 -15.924  41.455  0.00  0.00    -0.380 OA
ATOM     68  H   SER A   4       3.745 -15.740  40.496  0.00  0.00    +0.211 HD
ENDBRANCH  66  67
ENDBRANCH  39  66
ENDBRANCH   1  39
TORSDOF 29
REMARK  Name = ../refined-set-2016/3ivg/3ivg_pocket.pdb
REMARK  219 active torsions:
REMARK  status: ('A' for Active; 'I' for Inactive)
REMARK    1  A    between atoms: _1  and  _3
REMARK    2  A    between atoms: _3  and  _4
REMARK    3  A    between atoms: _3  and  _6
REMARK    4  A    between atoms: _6  and  _7
REMARK    5  A    between atoms: _10  and  _12
REMARK    6  A    between atoms: _12  and  _13
REMARK    7  A    between atoms: _12  and  _15
REMARK    8  A    between atoms: _19  and  _20
REMARK    9  A    between atoms: _25  and  _27
REMARK   10  A    between atoms: _27  and  _28
REMARK   11  A    between atoms: _27  and  _30
REMARK   12  A    between atoms: _30  and  _31
REMARK   13  A    between atoms: _34  and  _36
REMARK   14  A    between atoms: _36  and  _37
REMARK   15  A    between atoms: _36  and  _39
REMARK   16  A    between atoms: _39  and  _40
REMARK   17  A    between atoms: _40  and  _41
REMARK   18  A    between atoms: _43  and  _45
REMARK   19  A    between atoms: _45  and  _46
REMARK   20  A    between atoms: _48  and  _50
REMARK   21  A    between atoms: _50  and  _51
REMARK   22  A    between atoms: _54  and  _56
REMARK   23  A    between atoms: _56  and  _57
REMARK   24  A    between atoms: _56  and  _59
REMARK   25  A    between atoms: _59  and  _60
REMARK   26  A    between atoms: _63  and  _65
REMARK   27  A    between atoms: _65  and  _66
REMARK   28  A    between atoms: _65  and  _68
REMARK   29  A    between atoms: _68  and  _69
REMARK   30  A    between atoms: _74  and  _76
REMARK   31  A    between atoms: _76  and  _77
REMARK   32  A    between atoms: _76  and  _79
REMARK   33  A    between atoms: _79  and  _80
REMARK   34  A    between atoms: _80  and  _81
REMARK   35  A    between atoms: _84  and  _86
REMARK   36  A    between atoms: _86  and  _87
REMARK   37  A    between atoms: _89  and  _91
REMARK   38  A    between atoms: _91  and  _92
REMARK   39  A    between atoms: _91  and  _94
REMARK   40  A    between atoms: _94  and  _95
REMARK   41  A    between atoms: _100  and  _102
REMARK   42  A    between atoms: _102  and  _103
REMARK   43  A    between atoms: _102  and  _105
REMARK   44  A    between atoms: _105  and  _106
REMARK   45  A    between atoms: _109  and  _111
REMARK   46  A    between atoms: _111  and  _112
REMARK   47  A    between atoms: _115  and  _117
REMARK   48  A    between atoms: _117  and  _118
REMARK   49  A    between atoms: _117  and  _120
REMARK   50  A    between atoms: _120  and  _121
REMARK   51  A    between atoms: _124  and  _126
REMARK   52  A    between atoms: _126  and  _127
REMARK   53  A    between atoms: _126  and  _129
REMARK   54  A    between atoms: _132  and  _134
REMARK   55  A    between atoms: _134  and  _135
REMARK   56  A    between atoms: _138  and  _140
REMARK   57  A    between atoms: _140  and  _141
REMARK   58  A    between atoms: _140  and  _143
REMARK   59  A    between atoms: _146  and  _148
REMARK   60  A    between atoms: _148  and  _149
REMARK   61  A    between atoms: _148  and  _151
REMARK   62  A    between atoms: _151  and  _152
REMARK   63  A    between atoms: _154  and  _156
REMARK   64  A    between atoms: _156  and  _157
REMARK   65  A    between atoms: _156  and  _159
REMARK   66  A    between atoms: _159  and  _160
REMARK   67  A    between atoms: _163  and  _165
REMARK   68  A    between atoms: _165  and  _166
REMARK   69  A    between atoms: _165  and  _168
REMARK   70  A    between atoms: _168  and  _169
REMARK   71  A    between atoms: _175  and  _177
REMARK   72  A    between atoms: _177  and  _178
REMARK   73  A    between atoms: _177  and  _180
REMARK   74  A    between atoms: _183  and  _185
REMARK   75  A    between atoms: _185  and  _186
REMARK   76  A    between atoms: _185  and  _188
REMARK   77  A    between atoms: _188  and  _189
REMARK   78  A    between atoms: _194  and  _196
REMARK   79  A    between atoms: _196  and  _197
REMARK   80  A    between atoms: _196  and  _199
REMARK   81  A    between atoms: _199  and  _200
REMARK   82  A    between atoms: _200  and  _201
REMARK   83  A    between atoms: _206  and  _208
REMARK   84  A    between atoms: _208  and  _209
REMARK   85  A    between atoms: _208  and  _211
REMARK   86  A    between atoms: _211  and  _212
REMARK   87  A    between atoms: _212  and  _213
REMARK   88  A    between atoms: _215  and  _217
REMARK   89  A    between atoms: _217  and  _218
REMARK   90  A    between atoms: _217  and  _220
REMARK   91  A    between atoms: _220  and  _221
REMARK   92  A    between atoms: _226  and  _228
REMARK   93  A    between atoms: _228  and  _229
REMARK   94  A    between atoms: _228  and  _231
REMARK   95  A    between atoms: _231  and  _232
REMARK   96  A    between atoms: _238  and  _240
REMARK   97  A    between atoms: _240  and  _241
REMARK   98  A    between atoms: _243  and  _245
REMARK   99  A    between atoms: _245  and  _246
REMARK  100  A    between atoms: _245  and  _248
REMARK  101  A    between atoms: _251  and  _253
REMARK  102  A    between atoms: _253  and  _254
REMARK  103  A    between atoms: _253  and  _256
REMARK  104  A    between atoms: _256  and  _257
REMARK  105  A    between atoms: _260  and  _262
REMARK  106  A    between atoms: _262  and  _263
REMARK  107  A    between atoms: _262  and  _265
REMARK  108  A    between atoms: _265  and  _266
REMARK  109  A    between atoms: _269  and  _271
REMARK  110  A    between atoms: _271  and  _272
REMARK  111  A    between atoms: _271  and  _274
REMARK  112  A    between atoms: _277  and  _279
REMARK  113  A    between atoms: _279  and  _280
REMARK  114  A    between atoms: _279  and  _282
REMARK  115  A    between atoms: _285  and  _287
REMARK  116  A    between atoms: _287  and  _288
REMARK  117  A    between atoms: _287  and  _290
REMARK  118  A    between atoms: _290  and  _291
REMARK  119  A    between atoms: _294  and  _296
REMARK  120  A    between atoms: _296  and  _297
REMARK  121  A    between atoms: _296  and  _299
REMARK  122  A    between atoms: _299  and  _300
REMARK  123  A    between atoms: _303  and  _305
REMARK  124  A    between atoms: _305  and  _306
REMARK  125  A    between atoms: _305  and  _308
REMARK  126  A    between atoms: _308  and  _309
REMARK  127  A    between atoms: _315  and  _317
REMARK  128  A    between atoms: _317  and  _318
REMARK  129  A    between atoms: _317  and  _320
REMARK  130  A    between atoms: _320  and  _321
REMARK  131  A    between atoms: _327  and  _329
REMARK  132  A    between atoms: _329  and  _330
REMARK  133  A    between atoms: _332  and  _334
REMARK  134  A    between atoms: _334  and  _335
REMARK  135  A    between atoms: _334  and  _337
REMARK  136  A    between atoms: _337  and  _338
REMARK  137  A    between atoms: _338  and  _339
REMARK  138  A    between atoms: _342  and  _344
REMARK  139  A    between atoms: _344  and  _345
REMARK  140  A    between atoms: _344  and  _347
REMARK  141  A    between atoms: _347  and  _348
REMARK  142  A    between atoms: _348  and  _349
REMARK  143  A    between atoms: _349  and  _350
REMARK  144  A    between atoms: _350  and  _351
REMARK  145  A    between atoms: _355  and  _357
REMARK  146  A    between atoms: _357  and  _358
REMARK  147  A    between atoms: _357  and  _360
REMARK  148  A    between atoms: _360  and  _361
REMARK  149  A    between atoms: _364  and  _366
REMARK  150  A    between atoms: _366  and  _367
REMARK  151  A    between atoms: _366  and  _369
REMARK  152  A    between atoms: _369  and  _370
REMARK  153  A    between atoms: _370  and  _371
REMARK  154  A    between atoms: _376  and  _378
REMARK  155  A    between atoms: _378  and  _379
REMARK  156  A    between atoms: _378  and  _381
REMARK  157  A    between atoms: _381  and  _382
REMARK  158  A    between atoms: _385  and  _387
REMARK  159  A    between atoms: _387  and  _388
REMARK  160  A    between atoms: _390  and  _392
REMARK  161  A    between atoms: _392  and  _393
REMARK  162  A    between atoms: _392  and  _395
REMARK  163  A    between atoms: _399  and  _400
REMARK  164  A    between atoms: _405  and  _407
REMARK  165  A    between atoms: _407  and  _408
REMARK  166  A    between atoms: _407  and  _410
REMARK  167  A    between atoms: _410  and  _411
REMARK  168  A    between atoms: _414  and  _416
REMARK  169  A    between atoms: _416  and  _417
REMARK  170  A    between atoms: _416  and  _419
REMARK  171  A    between atoms: _422  and  _424
REMARK  172  A    between atoms: _424  and  _425
REMARK  173  A    between atoms: _424  and  _427
REMARK  174  A    between atoms: _427  and  _428
REMARK  175  A    between atoms: _428  and  _429
REMARK  176  A    between atoms: _429  and  _430
REMARK  177  A    between atoms: _439  and  _441
REMARK  178  A    between atoms: _441  and  _442
REMARK  179  A    between atoms: _441  and  _444
REMARK  180  A    between atoms: _444  and  _445
REMARK  181  A    between atoms: _448  and  _450
REMARK  182  A    between atoms: _450  and  _451
REMARK  183  A    between atoms: _454  and  _456
REMARK  184  A    between atoms: _456  and  _457
REMARK  185  A    between atoms: _456  and  _459
REMARK  186  A    between atoms: _459  and  _460
REMARK  187  A    between atoms: _460  and  _461
REMARK  188  A    between atoms: _463  and  _465
REMARK  189  A    between atoms: _465  and  _466
REMARK  190  A    between atoms: _465  and  _468
REMARK  191  A    between atoms: _468  and  _469
REMARK  192  A    between atoms: _471  and  _473
REMARK  193  A    between atoms: _473  and  _474
REMARK  194  A    between atoms: _473  and  _476
REMARK  195  A    between atoms: _476  and  _477
REMARK  196  A    between atoms: _479  and  _481
REMARK  197  A    between atoms: _481  and  _482
REMARK  198  A    between atoms: _481  and  _484
REMARK  199  A    between atoms: _484  and  _485
REMARK  200  A    between atoms: _485  and  _486
REMARK  201  A    between atoms: _486  and  _487
REMARK  202  A    between atoms: _496  and  _498
REMARK  203  A    between atoms: _498  and  _499
REMARK  204  A    between atoms: _498  and  _501
REMARK  205  A    between atoms: _501  and  _502
REMARK  206  A    between atoms: _507  and  _509
REMARK  207  A    between atoms: _509  and  _510
REMARK  208  A    between atoms: _509  and  _512
REMARK  209  A    between atoms: _512  and  _513
REMARK  210  A    between atoms: _513  and  _514
REMARK  211  A    between atoms: _514  and  _515
REMARK  212  A    between atoms: _524  and  _526
REMARK  213  A    between atoms: _526  and  _527
REMARK  214  A    between atoms: _526  and  _529
REMARK  215  A    between atoms: _529  and  _530
REMARK  216  A    between atoms: _533  and  _535
REMARK  217  A    between atoms: _535  and  _536
REMARK  218  A    between atoms: _535  and  _538
REMARK  219  A    between atoms: _538  and  _539
REMARK                            x       y       z     vdW  Elec       q    Type
REMARK                         _______ _______ _______ _____ _____    ______ ____
ROOT
ATOM      1  C   ARG A   1      10.674 -16.848  42.954  0.00  0.00    +0.238 C 
ATOM      2  N   LEU A   2      10.785 -16.064  44.024  0.00  0.00    -0.297 N 
ATOM      3  H   LEU A   2      11.668 -16.088  44.573  0.00  0.00    +0.150 HD
ATOM      4  O   ARG A   1       9.661 -16.865  42.219  0.00  0.00    -0.274 OA
ENDROOT
BRANCH   1   5
ATOM      5  CA  ARG A   1      11.855 -17.755  42.696  0.00  0.00    +0.145 C 
BRANCH   5   6
ATOM      6  N   ARG A   1      11.396 -19.129  42.557  0.00  0.00    -0.238 NA
ATOM      7  H   ARG A   1      11.069 -19.457  41.626  0.00  0.00    +0.142 HD
ENDBRANCH   5   6
BRANCH   5   8
ATOM      8  CB  ARG A   1      12.656 -17.341  41.452  0.00  0.00    +0.030 C 
BRANCH   8   9
ATOM      9  CG  ARG A   1      13.526 -16.124  41.645  0.00  0.00    +0.045 C 
BRANCH   9  10
ATOM     10  CD  ARG A   1      14.918 -16.254  40.954  0.00  0.00    +0.174 C 
BRANCH  10  11
ATOM     11  NE  ARG A   1      15.661 -14.996  41.106  0.00  0.00    -0.265 N 
ATOM     12  HE  ARG A   1      16.527 -14.995  41.682  0.00  0.00    +0.259 HD
ATOM     13  CZ  ARG A   1      15.271 -13.854  40.535  0.00  0.00    +0.342 C 
ATOM     14  NH2 ARG A   1      15.962 -12.724  40.716  0.00  0.00    -0.292 N 
ATOM     15 HH21 ARG A   1      16.817 -12.726  41.309  0.00  0.00    +0.255 HD
ATOM     16 HH22 ARG A   1      15.645 -11.843  40.264  0.00  0.00    +0.255 HD
ATOM     17  NH1 ARG A   1      14.186 -13.865  39.748  0.00  0.00    -0.292 N 
ATOM     18 HH11 ARG A   1      13.666 -14.752  39.592  0.00  0.00    +0.255 HD
ATOM     19 HH12 ARG A   1      13.865 -12.987  39.293  0.00  0.00    +0.255 HD
ENDBRANCH  10  11
ENDBRANCH   9  10
ENDBRANCH   8   9
ENDBRANCH   5   8
ENDBRANCH   1   5
BRANCH   2  20
ATOM     20  CA  LEU A   2       9.710 -15.170  44.456  0.00  0.00    +0.149 C 
BRANCH  20  21
ATOM     21  C   LEU A   2      10.165 -13.726  44.411  0.00  0.00    +0.241 C 
ATOM     22  O   LEU A   2      11.331 -13.433  44.634  0.00  0.00    -0.273 OA
ATOM     23  N   LEU A   3       9.241 -12.815  44.105  0.00  0.00    -0.298 N 
ATOM     24  H   LEU A   3       8.263 -13.116  43.920  0.00  0.00    +0.150 HD
BRANCH  23  25
ATOM     25  CA  LEU A   3       9.590 -11.391  44.026  0.00  0.00    +0.137 C 
BRANCH  25  26
ATOM     26  C   LEU A   3       8.620 -10.621  44.862  0.00  0.00    +0.227 C 
ATOM     27  O   LEU A   3       7.487 -11.047  45.040  0.00  0.00    -0.286 OA
ENDBRANCH  25  26
BRANCH  25  28
ATOM     28  CB  LEU A   3       9.445 -10.839  42.582  0.00  0.00    +0.028 C 
BRANCH  28  29
ATOM     29  CG  LEU A   3      10.026 -11.500  41.344  0.00  0.00    +0.002 C 
ATOM     30  CD2 LEU A   3      11.475 -11.767  41.524  0.00  0.00    +0.000 C 
ATOM     31  CD1 LEU A   3       9.802 -10.498  40.186  0.00  0.00    +0.000 C 
ENDBRANCH  28  29
ENDBRANCH  25  28
ENDBRANCH  23  25
ENDBRANCH  20  21
BRANCH  20  32
ATOM     32  CB  LEU A   2       9.234 -15.520  45.889  0.00  0.00    +0.029 C 
BRANCH  32  33
ATOM     33  CG  LEU A   2       8.635 -16.930  46.121  0.00  0.00    +0.002 C 
ATOM     34  CD2 LEU A   2       8.177 -17.079  47.558  0.00  0.00    +0.000 C 
ATOM     35  CD1 LEU A   2       7.421 -17.184  45.187  0.00  0.00    +0.000 C 
ENDBRANCH  32  33
ENDBRANCH  20  32
ENDBRANCH   2  20
TORSDOF 14
REMARK  Name = ../refined-set-2016/3ivg/3ivg_pocket.pdb
REMARK  219 active torsions:
REMARK  status: ('A' for Active; 'I' for Inactive)
REMARK    1  A    between atoms: _1  and  _3
REMARK    2  A    between atoms: _3  and  _4
REMARK    3  A    between atoms: _3  and  _6
REMARK    4  A    between atoms: _6  and  _7
REMARK    5  A    between atoms: _10  and  _12
REMARK    6  A    between atoms: _12  and  _13
REMARK    7  A    between atoms: _12  and  _15
REMARK    8  A    between atoms: _19  and  _20
REMARK    9  A    between atoms: _25  and  _27
REMARK   10  A    between atoms: _27  and  _28
REMARK   11  A    between atoms: _27  and  _30
REMARK   12  A    between atoms: _30  and  _31
REMARK   13  A    between atoms: _34  and  _36
REMARK   14  A    between atoms: _36  and  _37
REMARK   15  A    between atoms: _36  and  _39
REMARK   16  A    between atoms: _39  and  _40
REMARK   17  A    between atoms: _40  and  _41
REMARK   18  A    between atoms: _43  and  _45
REMARK   19  A    between atoms: _45  and  _46
REMARK   20  A    between atoms: _48  and  _50
REMARK   21  A    between atoms: _50  and  _51
REMARK   22  A    between atoms: _54  and  _56
REMARK   23  A    between atoms: _56  and  _57
REMARK   24  A    between atoms: _56  and  _59
REMARK   25  A    between atoms: _59  and  _60
REMARK   26  A    between atoms: _63  and  _65
REMARK   27  A    between atoms: _65  and  _66
REMARK   28  A    between atoms: _65  and  _68
REMARK   29  A    between atoms: _68  and  _69
REMARK   30  A    between atoms: _74  and  _76
REMARK   31  A    between atoms: _76  and  _77
REMARK   32  A    between atoms: _76  and  _79
REMARK   33  A    between atoms: _79  and  _80
REMARK   34  A    between atoms: _80  and  _81
REMARK   35  A    between atoms: _84  and  _86
REMARK   36  A    between atoms: _86  and  _87
REMARK   37  A    between atoms: _89  and  _91
REMARK   38  A    between atoms: _91  and  _92
REMARK   39  A    between atoms: _91  and  _94
REMARK   40  A    between atoms: _94  and  _95
REMARK   41  A    between atoms: _100  and  _102
REMARK   42  A    between atoms: _102  and  _103
REMARK   43  A    between atoms: _102  and  _105
REMARK   44  A    between atoms: _105  and  _106
REMARK   45  A    between atoms: _109  and  _111
REMARK   46  A    between atoms: _111  and  _112
REMARK   47  A    between atoms: _115  and  _117
REMARK   48  A    between atoms: _117  and  _118
REMARK   49  A    between atoms: _117  and  _120
REMARK   50  A    between atoms: _120  and  _121
REMARK   51  A    between atoms: _124  and  _126
REMARK   52  A    between atoms: _126  and  _127
REMARK   53  A    between atoms: _126  and  _129
REMARK   54  A    between atoms: _132  and  _134
REMARK   55  A    between atoms: _134  and  _135
REMARK   56  A    between atoms: _138  and  _140
REMARK   57  A    between atoms: _140  and  _141
REMARK   58  A    between atoms: _140  and  _143
REMARK   59  A    between atoms: _146  and  _148
REMARK   60  A    between atoms: _148  and  _149
REMARK   61  A    between atoms: _148  and  _151
REMARK   62  A    between atoms: _151  and  _152
REMARK   63  A    between atoms: _154  and  _156
REMARK   64  A    between atoms: _156  and  _157
REMARK   65  A    between atoms: _156  and  _159
REMARK   66  A    between atoms: _159  and  _160
REMARK   67  A    between atoms: _163  and  _165
REMARK   68  A    between atoms: _165  and  _166
REMARK   69  A    between atoms: _165  and  _168
REMARK   70  A    between atoms: _168  and  _169
REMARK   71  A    between atoms: _175  and  _177
REMARK   72  A    between atoms: _177  and  _178
REMARK   73  A    between atoms: _177  and  _180
REMARK   74  A    between atoms: _183  and  _185
REMARK   75  A    between atoms: _185  and  _186
REMARK   76  A    between atoms: _185  and  _188
REMARK   77  A    between atoms: _188  and  _189
REMARK   78  A    between atoms: _194  and  _196
REMARK   79  A    between atoms: _196  and  _197
REMARK   80  A    between atoms: _196  and  _199
REMARK   81  A    between atoms: _199  and  _200
REMARK   82  A    between atoms: _200  and  _201
REMARK   83  A    between atoms: _206  and  _208
REMARK   84  A    between atoms: _208  and  _209
REMARK   85  A    between atoms: _208  and  _211
REMARK   86  A    between atoms: _211  and  _212
REMARK   87  A    between atoms: _212  and  _213
REMARK   88  A    between atoms: _215  and  _217
REMARK   89  A    between atoms: _217  and  _218
REMARK   90  A    between atoms: _217  and  _220
REMARK   91  A    between atoms: _220  and  _221
REMARK   92  A    between atoms: _226  and  _228
REMARK   93  A    between atoms: _228  and  _229
REMARK   94  A    between atoms: _228  and  _231
REMARK   95  A    between atoms: _231  and  _232
REMARK   96  A    between atoms: _238  and  _240
REMARK   97  A    between atoms: _240  and  _241
REMARK   98  A    between atoms: _243  and  _245
REMARK   99  A    between atoms: _245  and  _246
REMARK  100  A    between atoms: _245  and  _248
REMARK  101  A    between atoms: _251  and  _253
REMARK  102  A    between atoms: _253  and  _254
REMARK  103  A    between atoms: _253  and  _256
REMARK  104  A    between atoms: _256  and  _257
REMARK  105  A    between atoms: _260  and  _262
REMARK  106  A    between atoms: _262  and  _263
REMARK  107  A    between atoms: _262  and  _265
REMARK  108  A    between atoms: _265  and  _266
REMARK  109  A    between atoms: _269  and  _271
REMARK  110  A    between atoms: _271  and  _272
REMARK  111  A    between atoms: _271  and  _274
REMARK  112  A    between atoms: _277  and  _279
REMARK  113  A    between atoms: _279  and  _280
REMARK  114  A    between atoms: _279  and  _282
REMARK  115  A    between atoms: _285  and  _287
REMARK  116  A    between atoms: _287  and  _288
REMARK  117  A    between atoms: _287  and  _290
REMARK  118  A    between atoms: _290  and  _291
REMARK  119  A    between atoms: _294  and  _296
REMARK  120  A    between atoms: _296  and  _297
REMARK  121  A    between atoms: _296  and  _299
REMARK  122  A    between atoms: _299  and  _300
REMARK  123  A    between atoms: _303  and  _305
REMARK  124  A    between atoms: _305  and  _306
REMARK  125  A    between atoms: _305  and  _308
REMARK  126  A    between atoms: _308  and  _309
REMARK  127  A    between atoms: _315  and  _317
REMARK  128  A    between atoms: _317  and  _318
REMARK  129  A    between atoms: _317  and  _320
REMARK  130  A    between atoms: _320  and  _321
REMARK  131  A    between atoms: _327  and  _329
REMARK  132  A    between atoms: _329  and  _330
REMARK  133  A    between atoms: _332  and  _334
REMARK  134  A    between atoms: _334  and  _335
REMARK  135  A    between atoms: _334  and  _337
REMARK  136  A    between atoms: _337  and  _338
REMARK  137  A    between atoms: _338  and  _339
REMARK  138  A    between atoms: _342  and  _344
REMARK  139  A    between atoms: _344  and  _345
REMARK  140  A    between atoms: _344  and  _347
REMARK  141  A    between atoms: _347  and  _348
REMARK  142  A    between atoms: _348  and  _349
REMARK  143  A    between atoms: _349  and  _350
REMARK  144  A    between atoms: _350  and  _351
REMARK  145  A    between atoms: _355  and  _357
REMARK  146  A    between atoms: _357  and  _358
REMARK  147  A    between atoms: _357  and  _360
REMARK  148  A    between atoms: _360  and  _361
REMARK  149  A    between atoms: _364  and  _366
REMARK  150  A    between atoms: _366  and  _367
REMARK  151  A    between atoms: _366  and  _369
REMARK  152  A    between atoms: _369  and  _370
REMARK  153  A    between atoms: _370  and  _371
REMARK  154  A    between atoms: _376  and  _378
REMARK  155  A    between atoms: _378  and  _379
REMARK  156  A    between atoms: _378  and  _381
REMARK  157  A    between atoms: _381  and  _382
REMARK  158  A    between atoms: _385  and  _387
REMARK  159  A    between atoms: _387  and  _388
REMARK  160  A    between atoms: _390  and  _392
REMARK  161  A    between atoms: _392  and  _393
REMARK  162  A    between atoms: _392  and  _395
REMARK  163  A    between atoms: _399  and  _400
REMARK  164  A    between atoms: _405  and  _407
REMARK  165  A    between atoms: _407  and  _408
REMARK  166  A    between atoms: _407  and  _410
REMARK  167  A    between atoms: _410  and  _411
REMARK  168  A    between atoms: _414  and  _416
REMARK  169  A    between atoms: _416  and  _417
REMARK  170  A    between atoms: _416  and  _419
REMARK  171  A    between atoms: _422  and  _424
REMARK  172  A    between atoms: _424  and  _425
REMARK  173  A    between atoms: _424  and  _427
REMARK  174  A    between atoms: _427  and  _428
REMARK  175  A    between atoms: _428  and  _429
REMARK  176  A    between atoms: _429  and  _430
REMARK  177  A    between atoms: _439  and  _441
REMARK  178  A    between atoms: _441  and  _442
REMARK  179  A    between atoms: _441  and  _444
REMARK  180  A    between atoms: _444  and  _445
REMARK  181  A    between atoms: _448  and  _450
REMARK  182  A    between atoms: _450  and  _451
REMARK  183  A    between atoms: _454  and  _456
REMARK  184  A    between atoms: _456  and  _457
REMARK  185  A    between atoms: _456  and  _459
REMARK  186  A    between atoms: _459  and  _460
REMARK  187  A    between atoms: _460  and  _461
REMARK  188  A    between atoms: _463  and  _465
REMARK  189  A    between atoms: _465  and  _466
REMARK  190  A    between atoms: _465  and  _468
REMARK  191  A    between atoms: _468  and  _469
REMARK  192  A    between atoms: _471  and  _473
REMARK  193  A    between atoms: _473  and  _474
REMARK  194  A    between atoms: _473  and  _476
REMARK  195  A    between atoms: _476  and  _477
REMARK  196  A    between atoms: _479  and  _481
REMARK  197  A    between atoms: _481  and  _482
REMARK  198  A    between atoms: _481  and  _484
REMARK  199  A    between atoms: _484  and  _485
REMARK  200  A    between atoms: _485  and  _486
REMARK  201  A    between atoms: _486  and  _487
REMARK  202  A    between atoms: _496  and  _498
REMARK  203  A    between atoms: _498  and  _499
REMARK  204  A    between atoms: _498  and  _501
REMARK  205  A    between atoms: _501  and  _502
REMARK  206  A    between atoms: _507  and  _509
REMARK  207  A    between atoms: _509  and  _510
REMARK  208  A    between atoms: _509  and  _512
REMARK  209  A    between atoms: _512  and  _513
REMARK  210  A    between atoms: _513  and  _514
REMARK  211  A    between atoms: _514  and  _515
REMARK  212  A    between atoms: _524  and  _526
REMARK  213  A    between atoms: _526  and  _527
REMARK  214  A    between atoms: _526  and  _529
REMARK  215  A    between atoms: _529  and  _530
REMARK  216  A    between atoms: _533  and  _535
REMARK  217  A    between atoms: _535  and  _536
REMARK  218  A    between atoms: _535  and  _538
REMARK  219  A    between atoms: _538  and  _539
REMARK                            x       y       z     vdW  Elec       q    Type
REMARK                         _______ _______ _______ _____ _____    ______ ____
ROOT
ATOM      1  O   HOH     1      -1.465 -11.177  26.669  0.00  0.00    +0.000 OA
ENDROOT
TORSDOF 0
REMARK  Name = ../refined-set-2016/3ivg/3ivg_pocket.pdb
REMARK  219 active torsions:
REMARK  status: ('A' for Active; 'I' for Inactive)
REMARK    1  A    between atoms: _1  and  _3
REMARK    2  A    between atoms: _3  and  _4
REMARK    3  A    between atoms: _3  and  _6
REMARK    4  A    between atoms: _6  and  _7
REMARK    5  A    between atoms: _10  and  _12
REMARK    6  A    between atoms: _12  and  _13
REMARK    7  A    between atoms: _12  and  _15
REMARK    8  A    between atoms: _19  and  _20
REMARK    9  A    between atoms: _25  and  _27
REMARK   10  A    between atoms: _27  and  _28
REMARK   11  A    between atoms: _27  and  _30
REMARK   12  A    between atoms: _30  and  _31
REMARK   13  A    between atoms: _34  and  _36
REMARK   14  A    between atoms: _36  and  _37
REMARK   15  A    between atoms: _36  and  _39
REMARK   16  A    between atoms: _39  and  _40
REMARK   17  A    between atoms: _40  and  _41
REMARK   18  A    between atoms: _43  and  _45
REMARK   19  A    between atoms: _45  and  _46
REMARK   20  A    between atoms: _48  and  _50
REMARK   21  A    between atoms: _50  and  _51
REMARK   22  A    between atoms: _54  and  _56
REMARK   23  A    between atoms: _56  and  _57
REMARK   24  A    between atoms: _56  and  _59
REMARK   25  A    between atoms: _59  and  _60
REMARK   26  A    between atoms: _63  and  _65
REMARK   27  A    between atoms: _65  and  _66
REMARK   28  A    between atoms: _65  and  _68
REMARK   29  A    between atoms: _68  and  _69
REMARK   30  A    between atoms: _74  and  _76
REMARK   31  A    between atoms: _76  and  _77
REMARK   32  A    between atoms: _76  and  _79
REMARK   33  A    between atoms: _79  and  _80
REMARK   34  A    between atoms: _80  and  _81
REMARK   35  A    between atoms: _84  and  _86
REMARK   36  A    between atoms: _86  and  _87
REMARK   37  A    between atoms: _89  and  _91
REMARK   38  A    between atoms: _91  and  _92
REMARK   39  A    between atoms: _91  and  _94
REMARK   40  A    between atoms: _94  and  _95
REMARK   41  A    between atoms: _100  and  _102
REMARK   42  A    between atoms: _102  and  _103
REMARK   43  A    between atoms: _102  and  _105
REMARK   44  A    between atoms: _105  and  _106
REMARK   45  A    between atoms: _109  and  _111
REMARK   46  A    between atoms: _111  and  _112
REMARK   47  A    between atoms: _115  and  _117
REMARK   48  A    between atoms: _117  and  _118
REMARK   49  A    between atoms: _117  and  _120
REMARK   50  A    between atoms: _120  and  _121
REMARK   51  A    between atoms: _124  and  _126
REMARK   52  A    between atoms: _126  and  _127
REMARK   53  A    between atoms: _126  and  _129
REMARK   54  A    between atoms: _132  and  _134
REMARK   55  A    between atoms: _134  and  _135
REMARK   56  A    between atoms: _138  and  _140
REMARK   57  A    between atoms: _140  and  _141
REMARK   58  A    between atoms: _140  and  _143
REMARK   59  A    between atoms: _146  and  _148
REMARK   60  A    between atoms: _148  and  _149
REMARK   61  A    between atoms: _148  and  _151
REMARK   62  A    between atoms: _151  and  _152
REMARK   63  A    between atoms: _154  and  _156
REMARK   64  A    between atoms: _156  and  _157
REMARK   65  A    between atoms: _156  and  _159
REMARK   66  A    between atoms: _159  and  _160
REMARK   67  A    between atoms: _163  and  _165
REMARK   68  A    between atoms: _165  and  _166
REMARK   69  A    between atoms: _165  and  _168
REMARK   70  A    between atoms: _168  and  _169
REMARK   71  A    between atoms: _175  and  _177
REMARK   72  A    between atoms: _177  and  _178
REMARK   73  A    between atoms: _177  and  _180
REMARK   74  A    between atoms: _183  and  _185
REMARK   75  A    between atoms: _185  and  _186
REMARK   76  A    between atoms: _185  and  _188
REMARK   77  A    between atoms: _188  and  _189
REMARK   78  A    between atoms: _194  and  _196
REMARK   79  A    between atoms: _196  and  _197
REMARK   80  A    between atoms: _196  and  _199
REMARK   81  A    between atoms: _199  and  _200
REMARK   82  A    between atoms: _200  and  _201
REMARK   83  A    between atoms: _206  and  _208
REMARK   84  A    between atoms: _208  and  _209
REMARK   85  A    between atoms: _208  and  _211
REMARK   86  A    between atoms: _211  and  _212
REMARK   87  A    between atoms: _212  and  _213
REMARK   88  A    between atoms: _215  and  _217
REMARK   89  A    between atoms: _217  and  _218
REMARK   90  A    between atoms: _217  and  _220
REMARK   91  A    between atoms: _220  and  _221
REMARK   92  A    between atoms: _226  and  _228
REMARK   93  A    between atoms: _228  and  _229
REMARK   94  A    between atoms: _228  and  _231
REMARK   95  A    between atoms: _231  and  _232
REMARK   96  A    between atoms: _238  and  _240
REMARK   97  A    between atoms: _240  and  _241
REMARK   98  A    between atoms: _243  and  _245
REMARK   99  A    between atoms: _245  and  _246
REMARK  100  A    between atoms: _245  and  _248
REMARK  101  A    between atoms: _251  and  _253
REMARK  102  A    between atoms: _253  and  _254
REMARK  103  A    between atoms: _253  and  _256
REMARK  104  A    between atoms: _256  and  _257
REMARK  105  A    between atoms: _260  and  _262
REMARK  106  A    between atoms: _262  and  _263
REMARK  107  A    between atoms: _262  and  _265
REMARK  108  A    between atoms: _265  and  _266
REMARK  109  A    between atoms: _269  and  _271
REMARK  110  A    between atoms: _271  and  _272
REMARK  111  A    between atoms: _271  and  _274
REMARK  112  A    between atoms: _277  and  _279
REMARK  113  A    between atoms: _279  and  _280
REMARK  114  A    between atoms: _279  and  _282
REMARK  115  A    between atoms: _285  and  _287
REMARK  116  A    between atoms: _287  and  _288
REMARK  117  A    between atoms: _287  and  _290
REMARK  118  A    between atoms: _290  and  _291
REMARK  119  A    between atoms: _294  and  _296
REMARK  120  A    between atoms: _296  and  _297
REMARK  121  A    between atoms: _296  and  _299
REMARK  122  A    between atoms: _299  and  _300
REMARK  123  A    between atoms: _303  and  _305
REMARK  124  A    between atoms: _305  and  _306
REMARK  125  A    between atoms: _305  and  _308
REMARK  126  A    between atoms: _308  and  _309
REMARK  127  A    between atoms: _315  and  _317
REMARK  128  A    between atoms: _317  and  _318
REMARK  129  A    between atoms: _317  and  _320
REMARK  130  A    between atoms: _320  and  _321
REMARK  131  A    between atoms: _327  and  _329
REMARK  132  A    between atoms: _329  and  _330
REMARK  133  A    between atoms: _332  and  _334
REMARK  134  A    between atoms: _334  and  _335
REMARK  135  A    between atoms: _334  and  _337
REMARK  136  A    between atoms: _337  and  _338
REMARK  137  A    between atoms: _338  and  _339
REMARK  138  A    between atoms: _342  and  _344
REMARK  139  A    between atoms: _344  and  _345
REMARK  140  A    between atoms: _344  and  _347
REMARK  141  A    between atoms: _347  and  _348
REMARK  142  A    between atoms: _348  and  _349
REMARK  143  A    between atoms: _349  and  _350
REMARK  144  A    between atoms: _350  and  _351
REMARK  145  A    between atoms: _355  and  _357
REMARK  146  A    between atoms: _357  and  _358
REMARK  147  A    between atoms: _357  and  _360
REMARK  148  A    between atoms: _360  and  _361
REMARK  149  A    between atoms: _364  and  _366
REMARK  150  A    between atoms: _366  and  _367
REMARK  151  A    between atoms: _366  and  _369
REMARK  152  A    between atoms: _369  and  _370
REMARK  153  A    between atoms: _370  and  _371
REMARK  154  A    between atoms: _376  and  _378
REMARK  155  A    between atoms: _378  and  _379
REMARK  156  A    between atoms: _378  and  _381
REMARK  157  A    between atoms: _381  and  _382
REMARK  158  A    between atoms: _385  and  _387
REMARK  159  A    between atoms: _387  and  _388
REMARK  160  A    between atoms: _390  and  _392
REMARK  161  A    between atoms: _392  and  _393
REMARK  162  A    between atoms: _392  and  _395
REMARK  163  A    between atoms: _399  and  _400
REMARK  164  A    between atoms: _405  and  _407
REMARK  165  A    between atoms: _407  and  _408
REMARK  166  A    between atoms: _407  and  _410
REMARK  167  A    between atoms: _410  and  _411
REMARK  168  A    between atoms: _414  and  _416
REMARK  169  A    between atoms: _416  and  _417
REMARK  170  A    between atoms: _416  and  _419
REMARK  171  A    between atoms: _422  and  _424
REMARK  172  A    between atoms: _424  and  _425
REMARK  173  A    between atoms: _424  and  _427
REMARK  174  A    between atoms: _427  and  _428
REMARK  175  A    between atoms: _428  and  _429
REMARK  176  A    between atoms: _429  and  _430
REMARK  177  A    between atoms: _439  and  _441
REMARK  178  A    between atoms: _441  and  _442
REMARK  179  A    between atoms: _441  and  _444
REMARK  180  A    between atoms: _444  and  _445
REMARK  181  A    between atoms: _448  and  _450
REMARK  182  A    between atoms: _450  and  _451
REMARK  183  A    between atoms: _454  and  _456
REMARK  184  A    between atoms: _456  and  _457
REMARK  185  A    between atoms: _456  and  _459
REMARK  186  A    between atoms: _459  and  _460
REMARK  187  A    between atoms: _460  and  _461
REMARK  188  A    between atoms: _463  and  _465
REMARK  189  A    between atoms: _465  and  _466
REMARK  190  A    between atoms: _465  and  _468
REMARK  191  A    between atoms: _468  and  _469
REMARK  192  A    between atoms: _471  and  _473
REMARK  193  A    between atoms: _473  and  _474
REMARK  194  A    between atoms: _473  and  _476
REMARK  195  A    between atoms: _476  and  _477
REMARK  196  A    between atoms: _479  and  _481
REMARK  197  A    between atoms: _481  and  _482
REMARK  198  A    between atoms: _481  and  _484
REMARK  199  A    between atoms: _484  and  _485
REMARK  200  A    between atoms: _485  and  _486
REMARK  201  A    between atoms: _486  and  _487
REMARK  202  A    between atoms: _496  and  _498
REMARK  203  A    between atoms: _498  and  _499
REMARK  204  A    between atoms: _498  and  _501
REMARK  205  A    between atoms: _501  and  _502
REMARK  206  A    between atoms: _507  and  _509
REMARK  207  A    between atoms: _509  and  _510
REMARK  208  A    between atoms: _509  and  _512
REMARK  209  A    between atoms: _512  and  _513
REMARK  210  A    between atoms: _513  and  _514
REMARK  211  A    between atoms: _514  and  _515
REMARK  212  A    between atoms: _524  and  _526
REMARK  213  A    between atoms: _526  and  _527
REMARK  214  A    between atoms: _526  and  _529
REMARK  215  A    between atoms: _529  and  _530
REMARK  216  A    between atoms: _533  and  _535
REMARK  217  A    between atoms: _535  and  _536
REMARK  218  A    between atoms: _535  and  _538
REMARK  219  A    between atoms: _538  and  _539
REMARK                            x       y       z     vdW  Elec       q    Type
REMARK                         _______ _______ _______ _____ _____    ______ ____
ROOT
ATOM      1  O   HOH     1      -1.217  -6.896  32.832  0.00  0.00    +0.000 OA
ENDROOT
TORSDOF 0
REMARK  Name = ../refined-set-2016/3ivg/3ivg_pocket.pdb
REMARK  219 active torsions:
REMARK  status: ('A' for Active; 'I' for Inactive)
REMARK    1  A    between atoms: _1  and  _3
REMARK    2  A    between atoms: _3  and  _4
REMARK    3  A    between atoms: _3  and  _6
REMARK    4  A    between atoms: _6  and  _7
REMARK    5  A    between atoms: _10  and  _12
REMARK    6  A    between atoms: _12  and  _13
REMARK    7  A    between atoms: _12  and  _15
REMARK    8  A    between atoms: _19  and  _20
REMARK    9  A    between atoms: _25  and  _27
REMARK   10  A    between atoms: _27  and  _28
REMARK   11  A    between atoms: _27  and  _30
REMARK   12  A    between atoms: _30  and  _31
REMARK   13  A    between atoms: _34  and  _36
REMARK   14  A    between atoms: _36  and  _37
REMARK   15  A    between atoms: _36  and  _39
REMARK   16  A    between atoms: _39  and  _40
REMARK   17  A    between atoms: _40  and  _41
REMARK   18  A    between atoms: _43  and  _45
REMARK   19  A    between atoms: _45  and  _46
REMARK   20  A    between atoms: _48  and  _50
REMARK   21  A    between atoms: _50  and  _51
REMARK   22  A    between atoms: _54  and  _56
REMARK   23  A    between atoms: _56  and  _57
REMARK   24  A    between atoms: _56  and  _59
REMARK   25  A    between atoms: _59  and  _60
REMARK   26  A    between atoms: _63  and  _65
REMARK   27  A    between atoms: _65  and  _66
REMARK   28  A    between atoms: _65  and  _68
REMARK   29  A    between atoms: _68  and  _69
REMARK   30  A    between atoms: _74  and  _76
REMARK   31  A    between atoms: _76  and  _77
REMARK   32  A    between atoms: _76  and  _79
REMARK   33  A    between atoms: _79  and  _80
REMARK   34  A    between atoms: _80  and  _81
REMARK   35  A    between atoms: _84  and  _86
REMARK   36  A    between atoms: _86  and  _87
REMARK   37  A    between atoms: _89  and  _91
REMARK   38  A    between atoms: _91  and  _92
REMARK   39  A    between atoms: _91  and  _94
REMARK   40  A    between atoms: _94  and  _95
REMARK   41  A    between atoms: _100  and  _102
REMARK   42  A    between atoms: _102  and  _103
REMARK   43  A    between atoms: _102  and  _105
REMARK   44  A    between atoms: _105  and  _106
REMARK   45  A    between atoms: _109  and  _111
REMARK   46  A    between atoms: _111  and  _112
REMARK   47  A    between atoms: _115  and  _117
REMARK   48  A    between atoms: _117  and  _118
REMARK   49  A    between atoms: _117  and  _120
REMARK   50  A    between atoms: _120  and  _121
REMARK   51  A    between atoms: _124  and  _126
REMARK   52  A    between atoms: _126  and  _127
REMARK   53  A    between atoms: _126  and  _129
REMARK   54  A    between atoms: _132  and  _134
REMARK   55  A    between atoms: _134  and  _135
REMARK   56  A    between atoms: _138  and  _140
REMARK   57  A    between atoms: _140  and  _141
REMARK   58  A    between atoms: _140  and  _143
REMARK   59  A    between atoms: _146  and  _148
REMARK   60  A    between atoms: _148  and  _149
REMARK   61  A    between atoms: _148  and  _151
REMARK   62  A    between atoms: _151  and  _152
REMARK   63  A    between atoms: _154  and  _156
REMARK   64  A    between atoms: _156  and  _157
REMARK   65  A    between atoms: _156  and  _159
REMARK   66  A    between atoms: _159  and  _160
REMARK   67  A    between atoms: _163  and  _165
REMARK   68  A    between atoms: _165  and  _166
REMARK   69  A    between atoms: _165  and  _168
REMARK   70  A    between atoms: _168  and  _169
REMARK   71  A    between atoms: _175  and  _177
REMARK   72  A    between atoms: _177  and  _178
REMARK   73  A    between atoms: _177  and  _180
REMARK   74  A    between atoms: _183  and  _185
REMARK   75  A    between atoms: _185  and  _186
REMARK   76  A    between atoms: _185  and  _188
REMARK   77  A    between atoms: _188  and  _189
REMARK   78  A    between atoms: _194  and  _196
REMARK   79  A    between atoms: _196  and  _197
REMARK   80  A    between atoms: _196  and  _199
REMARK   81  A    between atoms: _199  and  _200
REMARK   82  A    between atoms: _200  and  _201
REMARK   83  A    between atoms: _206  and  _208
REMARK   84  A    between atoms: _208  and  _209
REMARK   85  A    between atoms: _208  and  _211
REMARK   86  A    between atoms: _211  and  _212
REMARK   87  A    between atoms: _212  and  _213
REMARK   88  A    between atoms: _215  and  _217
REMARK   89  A    between atoms: _217  and  _218
REMARK   90  A    between atoms: _217  and  _220
REMARK   91  A    between atoms: _220  and  _221
REMARK   92  A    between atoms: _226  and  _228
REMARK   93  A    between atoms: _228  and  _229
REMARK   94  A    between atoms: _228  and  _231
REMARK   95  A    between atoms: _231  and  _232
REMARK   96  A    between atoms: _238  and  _240
REMARK   97  A    between atoms: _240  and  _241
REMARK   98  A    between atoms: _243  and  _245
REMARK   99  A    between atoms: _245  and  _246
REMARK  100  A    between atoms: _245  and  _248
REMARK  101  A    between atoms: _251  and  _253
REMARK  102  A    between atoms: _253  and  _254
REMARK  103  A    between atoms: _253  and  _256
REMARK  104  A    between atoms: _256  and  _257
REMARK  105  A    between atoms: _260  and  _262
REMARK  106  A    between atoms: _262  and  _263
REMARK  107  A    between atoms: _262  and  _265
REMARK  108  A    between atoms: _265  and  _266
REMARK  109  A    between atoms: _269  and  _271
REMARK  110  A    between atoms: _271  and  _272
REMARK  111  A    between atoms: _271  and  _274
REMARK  112  A    between atoms: _277  and  _279
REMARK  113  A    between atoms: _279  and  _280
REMARK  114  A    between atoms: _279  and  _282
REMARK  115  A    between atoms: _285  and  _287
REMARK  116  A    between atoms: _287  and  _288
REMARK  117  A    between atoms: _287  and  _290
REMARK  118  A    between atoms: _290  and  _291
REMARK  119  A    between atoms: _294  and  _296
REMARK  120  A    between atoms: _296  and  _297
REMARK  121  A    between atoms: _296  and  _299
REMARK  122  A    between atoms: _299  and  _300
REMARK  123  A    between atoms: _303  and  _305
REMARK  124  A    between atoms: _305  and  _306
REMARK  125  A    between atoms: _305  and  _308
REMARK  126  A    between atoms: _308  and  _309
REMARK  127  A    between atoms: _315  and  _317
REMARK  128  A    between atoms: _317  and  _318
REMARK  129  A    between atoms: _317  and  _320
REMARK  130  A    between atoms: _320  and  _321
REMARK  131  A    between atoms: _327  and  _329
REMARK  132  A    between atoms: _329  and  _330
REMARK  133  A    between atoms: _332  and  _334
REMARK  134  A    between atoms: _334  and  _335
REMARK  135  A    between atoms: _334  and  _337
REMARK  136  A    between atoms: _337  and  _338
REMARK  137  A    between atoms: _338  and  _339
REMARK  138  A    between atoms: _342  and  _344
REMARK  139  A    between atoms: _344  and  _345
REMARK  140  A    between atoms: _344  and  _347
REMARK  141  A    between atoms: _347  and  _348
REMARK  142  A    between atoms: _348  and  _349
REMARK  143  A    between atoms: _349  and  _350
REMARK  144  A    between atoms: _350  and  _351
REMARK  145  A    between atoms: _355  and  _357
REMARK  146  A    between atoms: _357  and  _358
REMARK  147  A    between atoms: _357  and  _360
REMARK  148  A    between atoms: _360  and  _361
REMARK  149  A    between atoms: _364  and  _366
REMARK  150  A    between atoms: _366  and  _367
REMARK  151  A    between atoms: _366  and  _369
REMARK  152  A    between atoms: _369  and  _370
REMARK  153  A    between atoms: _370  and  _371
REMARK  154  A    between atoms: _376  and  _378
REMARK  155  A    between atoms: _378  and  _379
REMARK  156  A    between atoms: _378  and  _381
REMARK  157  A    between atoms: _381  and  _382
REMARK  158  A    between atoms: _385  and  _387
REMARK  159  A    between atoms: _387  and  _388
REMARK  160  A    between atoms: _390  and  _392
REMARK  161  A    between atoms: _392  and  _393
REMARK  162  A    between atoms: _392  and  _395
REMARK  163  A    between atoms: _399  and  _400
REMARK  164  A    between atoms: _405  and  _407
REMARK  165  A    between atoms: _407  and  _408
REMARK  166  A    between atoms: _407  and  _410
REMARK  167  A    between atoms: _410  and  _411
REMARK  168  A    between atoms: _414  and  _416
REMARK  169  A    between atoms: _416  and  _417
REMARK  170  A    between atoms: _416  and  _419
REMARK  171  A    between atoms: _422  and  _424
REMARK  172  A    between atoms: _424  and  _425
REMARK  173  A    between atoms: _424  and  _427
REMARK  174  A    between atoms: _427  and  _428
REMARK  175  A    between atoms: _428  and  _429
REMARK  176  A    between atoms: _429  and  _430
REMARK  177  A    between atoms: _439  and  _441
REMARK  178  A    between atoms: _441  and  _442
REMARK  179  A    between atoms: _441  and  _444
REMARK  180  A    between atoms: _444  and  _445
REMARK  181  A    between atoms: _448  and  _450
REMARK  182  A    between atoms: _450  and  _451
REMARK  183  A    between atoms: _454  and  _456
REMARK  184  A    between atoms: _456  and  _457
REMARK  185  A    between atoms: _456  and  _459
REMARK  186  A    between atoms: _459  and  _460
REMARK  187  A    between atoms: _460  and  _461
REMARK  188  A    between atoms: _463  and  _465
REMARK  189  A    between atoms: _465  and  _466
REMARK  190  A    between atoms: _465  and  _468
REMARK  191  A    between atoms: _468  and  _469
REMARK  192  A    between atoms: _471  and  _473
REMARK  193  A    between atoms: _473  and  _474
REMARK  194  A    between atoms: _473  and  _476
REMARK  195  A    between atoms: _476  and  _477
REMARK  196  A    between atoms: _479  and  _481
REMARK  197  A    between atoms: _481  and  _482
REMARK  198  A    between atoms: _481  and  _484
REMARK  199  A    between atoms: _484  and  _485
REMARK  200  A    between atoms: _485  and  _486
REMARK  201  A    between atoms: _486  and  _487
REMARK  202  A    between atoms: _496  and  _498
REMARK  203  A    between atoms: _498  and  _499
REMARK  204  A    between atoms: _498  and  _501
REMARK  205  A    between atoms: _501  and  _502
REMARK  206  A    between atoms: _507  and  _509
REMARK  207  A    between atoms: _509  and  _510
REMARK  208  A    between atoms: _509  and  _512
REMARK  209  A    between atoms: _512  and  _513
REMARK  210  A    between atoms: _513  and  _514
REMARK  211  A    between atoms: _514  and  _515
REMARK  212  A    between atoms: _524  and  _526
REMARK  213  A    between atoms: _526  and  _527
REMARK  214  A    between atoms: _526  and  _529
REMARK  215  A    between atoms: _529  and  _530
REMARK  216  A    between atoms: _533  and  _535
REMARK  217  A    between atoms: _535  and  _536
REMARK  218  A    between atoms: _535  and  _538
REMARK  219  A    between atoms: _538  and  _539
REMARK                            x       y       z     vdW  Elec       q    Type
REMARK                         _______ _______ _______ _____ _____    ______ ____
ROOT
ATOM      1  O   HOH     1       1.824  -2.782  45.293  0.00  0.00    +0.000 OA
ENDROOT
TORSDOF 0
REMARK  Name = ../refined-set-2016/3ivg/3ivg_pocket.pdb
REMARK  219 active torsions:
REMARK  status: ('A' for Active; 'I' for Inactive)
REMARK    1  A    between atoms: _1  and  _3
REMARK    2  A    between atoms: _3  and  _4
REMARK    3  A    between atoms: _3  and  _6
REMARK    4  A    between atoms: _6  and  _7
REMARK    5  A    between atoms: _10  and  _12
REMARK    6  A    between atoms: _12  and  _13
REMARK    7  A    between atoms: _12  and  _15
REMARK    8  A    between atoms: _19  and  _20
REMARK    9  A    between atoms: _25  and  _27
REMARK   10  A    between atoms: _27  and  _28
REMARK   11  A    between atoms: _27  and  _30
REMARK   12  A    between atoms: _30  and  _31
REMARK   13  A    between atoms: _34  and  _36
REMARK   14  A    between atoms: _36  and  _37
REMARK   15  A    between atoms: _36  and  _39
REMARK   16  A    between atoms: _39  and  _40
REMARK   17  A    between atoms: _40  and  _41
REMARK   18  A    between atoms: _43  and  _45
REMARK   19  A    between atoms: _45  and  _46
REMARK   20  A    between atoms: _48  and  _50
REMARK   21  A    between atoms: _50  and  _51
REMARK   22  A    between atoms: _54  and  _56
REMARK   23  A    between atoms: _56  and  _57
REMARK   24  A    between atoms: _56  and  _59
REMARK   25  A    between atoms: _59  and  _60
REMARK   26  A    between atoms: _63  and  _65
REMARK   27  A    between atoms: _65  and  _66
REMARK   28  A    between atoms: _65  and  _68
REMARK   29  A    between atoms: _68  and  _69
REMARK   30  A    between atoms: _74  and  _76
REMARK   31  A    between atoms: _76  and  _77
REMARK   32  A    between atoms: _76  and  _79
REMARK   33  A    between atoms: _79  and  _80
REMARK   34  A    between atoms: _80  and  _81
REMARK   35  A    between atoms: _84  and  _86
REMARK   36  A    between atoms: _86  and  _87
REMARK   37  A    between atoms: _89  and  _91
REMARK   38  A    between atoms: _91  and  _92
REMARK   39  A    between atoms: _91  and  _94
REMARK   40  A    between atoms: _94  and  _95
REMARK   41  A    between atoms: _100  and  _102
REMARK   42  A    between atoms: _102  and  _103
REMARK   43  A    between atoms: _102  and  _105
REMARK   44  A    between atoms: _105  and  _106
REMARK   45  A    between atoms: _109  and  _111
REMARK   46  A    between atoms: _111  and  _112
REMARK   47  A    between atoms: _115  and  _117
REMARK   48  A    between atoms: _117  and  _118
REMARK   49  A    between atoms: _117  and  _120
REMARK   50  A    between atoms: _120  and  _121
REMARK   51  A    between atoms: _124  and  _126
REMARK   52  A    between atoms: _126  and  _127
REMARK   53  A    between atoms: _126  and  _129
REMARK   54  A    between atoms: _132  and  _134
REMARK   55  A    between atoms: _134  and  _135
REMARK   56  A    between atoms: _138  and  _140
REMARK   57  A    between atoms: _140  and  _141
REMARK   58  A    between atoms: _140  and  _143
REMARK   59  A    between atoms: _146  and  _148
REMARK   60  A    between atoms: _148  and  _149
REMARK   61  A    between atoms: _148  and  _151
REMARK   62  A    between atoms: _151  and  _152
REMARK   63  A    between atoms: _154  and  _156
REMARK   64  A    between atoms: _156  and  _157
REMARK   65  A    between atoms: _156  and  _159
REMARK   66  A    between atoms: _159  and  _160
REMARK   67  A    between atoms: _163  and  _165
REMARK   68  A    between atoms: _165  and  _166
REMARK   69  A    between atoms: _165  and  _168
REMARK   70  A    between atoms: _168  and  _169
REMARK   71  A    between atoms: _175  and  _177
REMARK   72  A    between atoms: _177  and  _178
REMARK   73  A    between atoms: _177  and  _180
REMARK   74  A    between atoms: _183  and  _185
REMARK   75  A    between atoms: _185  and  _186
REMARK   76  A    between atoms: _185  and  _188
REMARK   77  A    between atoms: _188  and  _189
REMARK   78  A    between atoms: _194  and  _196
REMARK   79  A    between atoms: _196  and  _197
REMARK   80  A    between atoms: _196  and  _199
REMARK   81  A    between atoms: _199  and  _200
REMARK   82  A    between atoms: _200  and  _201
REMARK   83  A    between atoms: _206  and  _208
REMARK   84  A    between atoms: _208  and  _209
REMARK   85  A    between atoms: _208  and  _211
REMARK   86  A    between atoms: _211  and  _212
REMARK   87  A    between atoms: _212  and  _213
REMARK   88  A    between atoms: _215  and  _217
REMARK   89  A    between atoms: _217  and  _218
REMARK   90  A    between atoms: _217  and  _220
REMARK   91  A    between atoms: _220  and  _221
REMARK   92  A    between atoms: _226  and  _228
REMARK   93  A    between atoms: _228  and  _229
REMARK   94  A    between atoms: _228  and  _231
REMARK   95  A    between atoms: _231  and  _232
REMARK   96  A    between atoms: _238  and  _240
REMARK   97  A    between atoms: _240  and  _241
REMARK   98  A    between atoms: _243  and  _245
REMARK   99  A    between atoms: _245  and  _246
REMARK  100  A    between atoms: _245  and  _248
REMARK  101  A    between atoms: _251  and  _253
REMARK  102  A    between atoms: _253  and  _254
REMARK  103  A    between atoms: _253  and  _256
REMARK  104  A    between atoms: _256  and  _257
REMARK  105  A    between atoms: _260  and  _262
REMARK  106  A    between atoms: _262  and  _263
REMARK  107  A    between atoms: _262  and  _265
REMARK  108  A    between atoms: _265  and  _266
REMARK  109  A    between atoms: _269  and  _271
REMARK  110  A    between atoms: _271  and  _272
REMARK  111  A    between atoms: _271  and  _274
REMARK  112  A    between atoms: _277  and  _279
REMARK  113  A    between atoms: _279  and  _280
REMARK  114  A    between atoms: _279  and  _282
REMARK  115  A    between atoms: _285  and  _287
REMARK  116  A    between atoms: _287  and  _288
REMARK  117  A    between atoms: _287  and  _290
REMARK  118  A    between atoms: _290  and  _291
REMARK  119  A    between atoms: _294  and  _296
REMARK  120  A    between atoms: _296  and  _297
REMARK  121  A    between atoms: _296  and  _299
REMARK  122  A    between atoms: _299  and  _300
REMARK  123  A    between atoms: _303  and  _305
REMARK  124  A    between atoms: _305  and  _306
REMARK  125  A    between atoms: _305  and  _308
REMARK  126  A    between atoms: _308  and  _309
REMARK  127  A    between atoms: _315  and  _317
REMARK  128  A    between atoms: _317  and  _318
REMARK  129  A    between atoms: _317  and  _320
REMARK  130  A    between atoms: _320  and  _321
REMARK  131  A    between atoms: _327  and  _329
REMARK  132  A    between atoms: _329  and  _330
REMARK  133  A    between atoms: _332  and  _334
REMARK  134  A    between atoms: _334  and  _335
REMARK  135  A    between atoms: _334  and  _337
REMARK  136  A    between atoms: _337  and  _338
REMARK  137  A    between atoms: _338  and  _339
REMARK  138  A    between atoms: _342  and  _344
REMARK  139  A    between atoms: _344  and  _345
REMARK  140  A    between atoms: _344  and  _347
REMARK  141  A    between atoms: _347  and  _348
REMARK  142  A    between atoms: _348  and  _349
REMARK  143  A    between atoms: _349  and  _350
REMARK  144  A    between atoms: _350  and  _351
REMARK  145  A    between atoms: _355  and  _357
REMARK  146  A    between atoms: _357  and  _358
REMARK  147  A    between atoms: _357  and  _360
REMARK  148  A    between atoms: _360  and  _361
REMARK  149  A    between atoms: _364  and  _366
REMARK  150  A    between atoms: _366  and  _367
REMARK  151  A    between atoms: _366  and  _369
REMARK  152  A    between atoms: _369  and  _370
REMARK  153  A    between atoms: _370  and  _371
REMARK  154  A    between atoms: _376  and  _378
REMARK  155  A    between atoms: _378  and  _379
REMARK  156  A    between atoms: _378  and  _381
REMARK  157  A    between atoms: _381  and  _382
REMARK  158  A    between atoms: _385  and  _387
REMARK  159  A    between atoms: _387  and  _388
REMARK  160  A    between atoms: _390  and  _392
REMARK  161  A    between atoms: _392  and  _393
REMARK  162  A    between atoms: _392  and  _395
REMARK  163  A    between atoms: _399  and  _400
REMARK  164  A    between atoms: _405  and  _407
REMARK  165  A    between atoms: _407  and  _408
REMARK  166  A    between atoms: _407  and  _410
REMARK  167  A    between atoms: _410  and  _411
REMARK  168  A    between atoms: _414  and  _416
REMARK  169  A    between atoms: _416  and  _417
REMARK  170  A    between atoms: _416  and  _419
REMARK  171  A    between atoms: _422  and  _424
REMARK  172  A    between atoms: _424  and  _425
REMARK  173  A    between atoms: _424  and  _427
REMARK  174  A    between atoms: _427  and  _428
REMARK  175  A    between atoms: _428  and  _429
REMARK  176  A    between atoms: _429  and  _430
REMARK  177  A    between atoms: _439  and  _441
REMARK  178  A    between atoms: _441  and  _442
REMARK  179  A    between atoms: _441  and  _444
REMARK  180  A    between atoms: _444  and  _445
REMARK  181  A    between atoms: _448  and  _450
REMARK  182  A    between atoms: _450  and  _451
REMARK  183  A    between atoms: _454  and  _456
REMARK  184  A    between atoms: _456  and  _457
REMARK  185  A    between atoms: _456  and  _459
REMARK  186  A    between atoms: _459  and  _460
REMARK  187  A    between atoms: _460  and  _461
REMARK  188  A    between atoms: _463  and  _465
REMARK  189  A    between atoms: _465  and  _466
REMARK  190  A    between atoms: _465  and  _468
REMARK  191  A    between atoms: _468  and  _469
REMARK  192  A    between atoms: _471  and  _473
REMARK  193  A    between atoms: _473  and  _474
REMARK  194  A    between atoms: _473  and  _476
REMARK  195  A    between atoms: _476  and  _477
REMARK  196  A    between atoms: _479  and  _481
REMARK  197  A    between atoms: _481  and  _482
REMARK  198  A    between atoms: _481  and  _484
REMARK  199  A    between atoms: _484  and  _485
REMARK  200  A    between atoms: _485  and  _486
REMARK  201  A    between atoms: _486  and  _487
REMARK  202  A    between atoms: _496  and  _498
REMARK  203  A    between atoms: _498  and  _499
REMARK  204  A    between atoms: _498  and  _501
REMARK  205  A    between atoms: _501  and  _502
REMARK  206  A    between atoms: _507  and  _509
REMARK  207  A    between atoms: _509  and  _510
REMARK  208  A    between atoms: _509  and  _512
REMARK  209  A    between atoms: _512  and  _513
REMARK  210  A    between atoms: _513  and  _514
REMARK  211  A    between atoms: _514  and  _515
REMARK  212  A    between atoms: _524  and  _526
REMARK  213  A    between atoms: _526  and  _527
REMARK  214  A    between atoms: _526  and  _529
REMARK  215  A    between atoms: _529  and  _530
REMARK  216  A    between atoms: _533  and  _535
REMARK  217  A    between atoms: _535  and  _536
REMARK  218  A    between atoms: _535  and  _538
REMARK  219  A    between atoms: _538  and  _539
REMARK                            x       y       z     vdW  Elec       q    Type
REMARK                         _______ _______ _______ _____ _____    ______ ____
ROOT
ATOM      1  O   HOH     1      -0.113  -4.403  48.087  0.00  0.00    +0.000 OA
ENDROOT
TORSDOF 0
REMARK  Name = ../refined-set-2016/3ivg/3ivg_pocket.pdb
REMARK  219 active torsions:
REMARK  status: ('A' for Active; 'I' for Inactive)
REMARK    1  A    between atoms: _1  and  _3
REMARK    2  A    between atoms: _3  and  _4
REMARK    3  A    between atoms: _3  and  _6
REMARK    4  A    between atoms: _6  and  _7
REMARK    5  A    between atoms: _10  and  _12
REMARK    6  A    between atoms: _12  and  _13
REMARK    7  A    between atoms: _12  and  _15
REMARK    8  A    between atoms: _19  and  _20
REMARK    9  A    between atoms: _25  and  _27
REMARK   10  A    between atoms: _27  and  _28
REMARK   11  A    between atoms: _27  and  _30
REMARK   12  A    between atoms: _30  and  _31
REMARK   13  A    between atoms: _34  and  _36
REMARK   14  A    between atoms: _36  and  _37
REMARK   15  A    between atoms: _36  and  _39
REMARK   16  A    between atoms: _39  and  _40
REMARK   17  A    between atoms: _40  and  _41
REMARK   18  A    between atoms: _43  and  _45
REMARK   19  A    between atoms: _45  and  _46
REMARK   20  A    between atoms: _48  and  _50
REMARK   21  A    between atoms: _50  and  _51
REMARK   22  A    between atoms: _54  and  _56
REMARK   23  A    between atoms: _56  and  _57
REMARK   24  A    between atoms: _56  and  _59
REMARK   25  A    between atoms: _59  and  _60
REMARK   26  A    between atoms: _63  and  _65
REMARK   27  A    between atoms: _65  and  _66
REMARK   28  A    between atoms: _65  and  _68
REMARK   29  A    between atoms: _68  and  _69
REMARK   30  A    between atoms: _74  and  _76
REMARK   31  A    between atoms: _76  and  _77
REMARK   32  A    between atoms: _76  and  _79
REMARK   33  A    between atoms: _79  and  _80
REMARK   34  A    between atoms: _80  and  _81
REMARK   35  A    between atoms: _84  and  _86
REMARK   36  A    between atoms: _86  and  _87
REMARK   37  A    between atoms: _89  and  _91
REMARK   38  A    between atoms: _91  and  _92
REMARK   39  A    between atoms: _91  and  _94
REMARK   40  A    between atoms: _94  and  _95
REMARK   41  A    between atoms: _100  and  _102
REMARK   42  A    between atoms: _102  and  _103
REMARK   43  A    between atoms: _102  and  _105
REMARK   44  A    between atoms: _105  and  _106
REMARK   45  A    between atoms: _109  and  _111
REMARK   46  A    between atoms: _111  and  _112
REMARK   47  A    between atoms: _115  and  _117
REMARK   48  A    between atoms: _117  and  _118
REMARK   49  A    between atoms: _117  and  _120
REMARK   50  A    between atoms: _120  and  _121
REMARK   51  A    between atoms: _124  and  _126
REMARK   52  A    between atoms: _126  and  _127
REMARK   53  A    between atoms: _126  and  _129
REMARK   54  A    between atoms: _132  and  _134
REMARK   55  A    between atoms: _134  and  _135
REMARK   56  A    between atoms: _138  and  _140
REMARK   57  A    between atoms: _140  and  _141
REMARK   58  A    between atoms: _140  and  _143
REMARK   59  A    between atoms: _146  and  _148
REMARK   60  A    between atoms: _148  and  _149
REMARK   61  A    between atoms: _148  and  _151
REMARK   62  A    between atoms: _151  and  _152
REMARK   63  A    between atoms: _154  and  _156
REMARK   64  A    between atoms: _156  and  _157
REMARK   65  A    between atoms: _156  and  _159
REMARK   66  A    between atoms: _159  and  _160
REMARK   67  A    between atoms: _163  and  _165
REMARK   68  A    between atoms: _165  and  _166
REMARK   69  A    between atoms: _165  and  _168
REMARK   70  A    between atoms: _168  and  _169
REMARK   71  A    between atoms: _175  and  _177
REMARK   72  A    between atoms: _177  and  _178
REMARK   73  A    between atoms: _177  and  _180
REMARK   74  A    between atoms: _183  and  _185
REMARK   75  A    between atoms: _185  and  _186
REMARK   76  A    between atoms: _185  and  _188
REMARK   77  A    between atoms: _188  and  _189
REMARK   78  A    between atoms: _194  and  _196
REMARK   79  A    between atoms: _196  and  _197
REMARK   80  A    between atoms: _196  and  _199
REMARK   81  A    between atoms: _199  and  _200
REMARK   82  A    between atoms: _200  and  _201
REMARK   83  A    between atoms: _206  and  _208
REMARK   84  A    between atoms: _208  and  _209
REMARK   85  A    between atoms: _208  and  _211
REMARK   86  A    between atoms: _211  and  _212
REMARK   87  A    between atoms: _212  and  _213
REMARK   88  A    between atoms: _215  and  _217
REMARK   89  A    between atoms: _217  and  _218
REMARK   90  A    between atoms: _217  and  _220
REMARK   91  A    between atoms: _220  and  _221
REMARK   92  A    between atoms: _226  and  _228
REMARK   93  A    between atoms: _228  and  _229
REMARK   94  A    between atoms: _228  and  _231
REMARK   95  A    between atoms: _231  and  _232
REMARK   96  A    between atoms: _238  and  _240
REMARK   97  A    between atoms: _240  and  _241
REMARK   98  A    between atoms: _243  and  _245
REMARK   99  A    between atoms: _245  and  _246
REMARK  100  A    between atoms: _245  and  _248
REMARK  101  A    between atoms: _251  and  _253
REMARK  102  A    between atoms: _253  and  _254
REMARK  103  A    between atoms: _253  and  _256
REMARK  104  A    between atoms: _256  and  _257
REMARK  105  A    between atoms: _260  and  _262
REMARK  106  A    between atoms: _262  and  _263
REMARK  107  A    between atoms: _262  and  _265
REMARK  108  A    between atoms: _265  and  _266
REMARK  109  A    between atoms: _269  and  _271
REMARK  110  A    between atoms: _271  and  _272
REMARK  111  A    between atoms: _271  and  _274
REMARK  112  A    between atoms: _277  and  _279
REMARK  113  A    between atoms: _279  and  _280
REMARK  114  A    between atoms: _279  and  _282
REMARK  115  A    between atoms: _285  and  _287
REMARK  116  A    between atoms: _287  and  _288
REMARK  117  A    between atoms: _287  and  _290
REMARK  118  A    between atoms: _290  and  _291
REMARK  119  A    between atoms: _294  and  _296
REMARK  120  A    between atoms: _296  and  _297
REMARK  121  A    between atoms: _296  and  _299
REMARK  122  A    between atoms: _299  and  _300
REMARK  123  A    between atoms: _303  and  _305
REMARK  124  A    between atoms: _305  and  _306
REMARK  125  A    between atoms: _305  and  _308
REMARK  126  A    between atoms: _308  and  _309
REMARK  127  A    between atoms: _315  and  _317
REMARK  128  A    between atoms: _317  and  _318
REMARK  129  A    between atoms: _317  and  _320
REMARK  130  A    between atoms: _320  and  _321
REMARK  131  A    between atoms: _327  and  _329
REMARK  132  A    between atoms: _329  and  _330
REMARK  133  A    between atoms: _332  and  _334
REMARK  134  A    between atoms: _334  and  _335
REMARK  135  A    between atoms: _334  and  _337
REMARK  136  A    between atoms: _337  and  _338
REMARK  137  A    between atoms: _338  and  _339
REMARK  138  A    between atoms: _342  and  _344
REMARK  139  A    between atoms: _344  and  _345
REMARK  140  A    between atoms: _344  and  _347
REMARK  141  A    between atoms: _347  and  _348
REMARK  142  A    between atoms: _348  and  _349
REMARK  143  A    between atoms: _349  and  _350
REMARK  144  A    between atoms: _350  and  _351
REMARK  145  A    between atoms: _355  and  _357
REMARK  146  A    between atoms: _357  and  _358
REMARK  147  A    between atoms: _357  and  _360
REMARK  148  A    between atoms: _360  and  _361
REMARK  149  A    between atoms: _364  and  _366
REMARK  150  A    between atoms: _366  and  _367
REMARK  151  A    between atoms: _366  and  _369
REMARK  152  A    between atoms: _369  and  _370
REMARK  153  A    between atoms: _370  and  _371
REMARK  154  A    between atoms: _376  and  _378
REMARK  155  A    between atoms: _378  and  _379
REMARK  156  A    between atoms: _378  and  _381
REMARK  157  A    between atoms: _381  and  _382
REMARK  158  A    between atoms: _385  and  _387
REMARK  159  A    between atoms: _387  and  _388
REMARK  160  A    between atoms: _390  and  _392
REMARK  161  A    between atoms: _392  and  _393
REMARK  162  A    between atoms: _392  and  _395
REMARK  163  A    between atoms: _399  and  _400
REMARK  164  A    between atoms: _405  and  _407
REMARK  165  A    between atoms: _407  and  _408
REMARK  166  A    between atoms: _407  and  _410
REMARK  167  A    between atoms: _410  and  _411
REMARK  168  A    between atoms: _414  and  _416
REMARK  169  A    between atoms: _416  and  _417
REMARK  170  A    between atoms: _416  and  _419
REMARK  171  A    between atoms: _422  and  _424
REMARK  172  A    between atoms: _424  and  _425
REMARK  173  A    between atoms: _424  and  _427
REMARK  174  A    between atoms: _427  and  _428
REMARK  175  A    between atoms: _428  and  _429
REMARK  176  A    between atoms: _429  and  _430
REMARK  177  A    between atoms: _439  and  _441
REMARK  178  A    between atoms: _441  and  _442
REMARK  179  A    between atoms: _441  and  _444
REMARK  180  A    between atoms: _444  and  _445
REMARK  181  A    between atoms: _448  and  _450
REMARK  182  A    between atoms: _450  and  _451
REMARK  183  A    between atoms: _454  and  _456
REMARK  184  A    between atoms: _456  and  _457
REMARK  185  A    between atoms: _456  and  _459
REMARK  186  A    between atoms: _459  and  _460
REMARK  187  A    between atoms: _460  and  _461
REMARK  188  A    between atoms: _463  and  _465
REMARK  189  A    between atoms: _465  and  _466
REMARK  190  A    between atoms: _465  and  _468
REMARK  191  A    between atoms: _468  and  _469
REMARK  192  A    between atoms: _471  and  _473
REMARK  193  A    between atoms: _473  and  _474
REMARK  194  A    between atoms: _473  and  _476
REMARK  195  A    between atoms: _476  and  _477
REMARK  196  A    between atoms: _479  and  _481
REMARK  197  A    between atoms: _481  and  _482
REMARK  198  A    between atoms: _481  and  _484
REMARK  199  A    between atoms: _484  and  _485
REMARK  200  A    between atoms: _485  and  _486
REMARK  201  A    between atoms: _486  and  _487
REMARK  202  A    between atoms: _496  and  _498
REMARK  203  A    between atoms: _498  and  _499
REMARK  204  A    between atoms: _498  and  _501
REMARK  205  A    between atoms: _501  and  _502
REMARK  206  A    between atoms: _507  and  _509
REMARK  207  A    between atoms: _509  and  _510
REMARK  208  A    between atoms: _509  and  _512
REMARK  209  A    between atoms: _512  and  _513
REMARK  210  A    between atoms: _513  and  _514
REMARK  211  A    between atoms: _514  and  _515
REMARK  212  A    between atoms: _524  and  _526
REMARK  213  A    between atoms: _526  and  _527
REMARK  214  A    between atoms: _526  and  _529
REMARK  215  A    between atoms: _529  and  _530
REMARK  216  A    between atoms: _533  and  _535
REMARK  217  A    between atoms: _535  and  _536
REMARK  218  A    between atoms: _535  and  _538
REMARK  219  A    between atoms: _538  and  _539
REMARK                            x       y       z     vdW  Elec       q    Type
REMARK                         _______ _______ _______ _____ _____    ______ ____
ROOT
ATOM      1  O   HOH     1      -8.916  -3.315  41.389  0.00  0.00    +0.000 OA
ENDROOT
TORSDOF 0
REMARK  Name = ../refined-set-2016/3ivg/3ivg_pocket.pdb
REMARK  219 active torsions:
REMARK  status: ('A' for Active; 'I' for Inactive)
REMARK    1  A    between atoms: _1  and  _3
REMARK    2  A    between atoms: _3  and  _4
REMARK    3  A    between atoms: _3  and  _6
REMARK    4  A    between atoms: _6  and  _7
REMARK    5  A    between atoms: _10  and  _12
REMARK    6  A    between atoms: _12  and  _13
REMARK    7  A    between atoms: _12  and  _15
REMARK    8  A    between atoms: _19  and  _20
REMARK    9  A    between atoms: _25  and  _27
REMARK   10  A    between atoms: _27  and  _28
REMARK   11  A    between atoms: _27  and  _30
REMARK   12  A    between atoms: _30  and  _31
REMARK   13  A    between atoms: _34  and  _36
REMARK   14  A    between atoms: _36  and  _37
REMARK   15  A    between atoms: _36  and  _39
REMARK   16  A    between atoms: _39  and  _40
REMARK   17  A    between atoms: _40  and  _41
REMARK   18  A    between atoms: _43  and  _45
REMARK   19  A    between atoms: _45  and  _46
REMARK   20  A    between atoms: _48  and  _50
REMARK   21  A    between atoms: _50  and  _51
REMARK   22  A    between atoms: _54  and  _56
REMARK   23  A    between atoms: _56  and  _57
REMARK   24  A    between atoms: _56  and  _59
REMARK   25  A    between atoms: _59  and  _60
REMARK   26  A    between atoms: _63  and  _65
REMARK   27  A    between atoms: _65  and  _66
REMARK   28  A    between atoms: _65  and  _68
REMARK   29  A    between atoms: _68  and  _69
REMARK   30  A    between atoms: _74  and  _76
REMARK   31  A    between atoms: _76  and  _77
REMARK   32  A    between atoms: _76  and  _79
REMARK   33  A    between atoms: _79  and  _80
REMARK   34  A    between atoms: _80  and  _81
REMARK   35  A    between atoms: _84  and  _86
REMARK   36  A    between atoms: _86  and  _87
REMARK   37  A    between atoms: _89  and  _91
REMARK   38  A    between atoms: _91  and  _92
REMARK   39  A    between atoms: _91  and  _94
REMARK   40  A    between atoms: _94  and  _95
REMARK   41  A    between atoms: _100  and  _102
REMARK   42  A    between atoms: _102  and  _103
REMARK   43  A    between atoms: _102  and  _105
REMARK   44  A    between atoms: _105  and  _106
REMARK   45  A    between atoms: _109  and  _111
REMARK   46  A    between atoms: _111  and  _112
REMARK   47  A    between atoms: _115  and  _117
REMARK   48  A    between atoms: _117  and  _118
REMARK   49  A    between atoms: _117  and  _120
REMARK   50  A    between atoms: _120  and  _121
REMARK   51  A    between atoms: _124  and  _126
REMARK   52  A    between atoms: _126  and  _127
REMARK   53  A    between atoms: _126  and  _129
REMARK   54  A    between atoms: _132  and  _134
REMARK   55  A    between atoms: _134  and  _135
REMARK   56  A    between atoms: _138  and  _140
REMARK   57  A    between atoms: _140  and  _141
REMARK   58  A    between atoms: _140  and  _143
REMARK   59  A    between atoms: _146  and  _148
REMARK   60  A    between atoms: _148  and  _149
REMARK   61  A    between atoms: _148  and  _151
REMARK   62  A    between atoms: _151  and  _152
REMARK   63  A    between atoms: _154  and  _156
REMARK   64  A    between atoms: _156  and  _157
REMARK   65  A    between atoms: _156  and  _159
REMARK   66  A    between atoms: _159  and  _160
REMARK   67  A    between atoms: _163  and  _165
REMARK   68  A    between atoms: _165  and  _166
REMARK   69  A    between atoms: _165  and  _168
REMARK   70  A    between atoms: _168  and  _169
REMARK   71  A    between atoms: _175  and  _177
REMARK   72  A    between atoms: _177  and  _178
REMARK   73  A    between atoms: _177  and  _180
REMARK   74  A    between atoms: _183  and  _185
REMARK   75  A    between atoms: _185  and  _186
REMARK   76  A    between atoms: _185  and  _188
REMARK   77  A    between atoms: _188  and  _189
REMARK   78  A    between atoms: _194  and  _196
REMARK   79  A    between atoms: _196  and  _197
REMARK   80  A    between atoms: _196  and  _199
REMARK   81  A    between atoms: _199  and  _200
REMARK   82  A    between atoms: _200  and  _201
REMARK   83  A    between atoms: _206  and  _208
REMARK   84  A    between atoms: _208  and  _209
REMARK   85  A    between atoms: _208  and  _211
REMARK   86  A    between atoms: _211  and  _212
REMARK   87  A    between atoms: _212  and  _213
REMARK   88  A    between atoms: _215  and  _217
REMARK   89  A    between atoms: _217  and  _218
REMARK   90  A    between atoms: _217  and  _220
REMARK   91  A    between atoms: _220  and  _221
REMARK   92  A    between atoms: _226  and  _228
REMARK   93  A    between atoms: _228  and  _229
REMARK   94  A    between atoms: _228  and  _231
REMARK   95  A    between atoms: _231  and  _232
REMARK   96  A    between atoms: _238  and  _240
REMARK   97  A    between atoms: _240  and  _241
REMARK   98  A    between atoms: _243  and  _245
REMARK   99  A    between atoms: _245  and  _246
REMARK  100  A    between atoms: _245  and  _248
REMARK  101  A    between atoms: _251  and  _253
REMARK  102  A    between atoms: _253  and  _254
REMARK  103  A    between atoms: _253  and  _256
REMARK  104  A    between atoms: _256  and  _257
REMARK  105  A    between atoms: _260  and  _262
REMARK  106  A    between atoms: _262  and  _263
REMARK  107  A    between atoms: _262  and  _265
REMARK  108  A    between atoms: _265  and  _266
REMARK  109  A    between atoms: _269  and  _271
REMARK  110  A    between atoms: _271  and  _272
REMARK  111  A    between atoms: _271  and  _274
REMARK  112  A    between atoms: _277  and  _279
REMARK  113  A    between atoms: _279  and  _280
REMARK  114  A    between atoms: _279  and  _282
REMARK  115  A    between atoms: _285  and  _287
REMARK  116  A    between atoms: _287  and  _288
REMARK  117  A    between atoms: _287  and  _290
REMARK  118  A    between atoms: _290  and  _291
REMARK  119  A    between atoms: _294  and  _296
REMARK  120  A    between atoms: _296  and  _297
REMARK  121  A    between atoms: _296  and  _299
REMARK  122  A    between atoms: _299  and  _300
REMARK  123  A    between atoms: _303  and  _305
REMARK  124  A    between atoms: _305  and  _306
REMARK  125  A    between atoms: _305  and  _308
REMARK  126  A    between atoms: _308  and  _309
REMARK  127  A    between atoms: _315  and  _317
REMARK  128  A    between atoms: _317  and  _318
REMARK  129  A    between atoms: _317  and  _320
REMARK  130  A    between atoms: _320  and  _321
REMARK  131  A    between atoms: _327  and  _329
REMARK  132  A    between atoms: _329  and  _330
REMARK  133  A    between atoms: _332  and  _334
REMARK  134  A    between atoms: _334  and  _335
REMARK  135  A    between atoms: _334  and  _337
REMARK  136  A    between atoms: _337  and  _338
REMARK  137  A    between atoms: _338  and  _339
REMARK  138  A    between atoms: _342  and  _344
REMARK  139  A    between atoms: _344  and  _345
REMARK  140  A    between atoms: _344  and  _347
REMARK  141  A    between atoms: _347  and  _348
REMARK  142  A    between atoms: _348  and  _349
REMARK  143  A    between atoms: _349  and  _350
REMARK  144  A    between atoms: _350  and  _351
REMARK  145  A    between atoms: _355  and  _357
REMARK  146  A    between atoms: _357  and  _358
REMARK  147  A    between atoms: _357  and  _360
REMARK  148  A    between atoms: _360  and  _361
REMARK  149  A    between atoms: _364  and  _366
REMARK  150  A    between atoms: _366  and  _367
REMARK  151  A    between atoms: _366  and  _369
REMARK  152  A    between atoms: _369  and  _370
REMARK  153  A    between atoms: _370  and  _371
REMARK  154  A    between atoms: _376  and  _378
REMARK  155  A    between atoms: _378  and  _379
REMARK  156  A    between atoms: _378  and  _381
REMARK  157  A    between atoms: _381  and  _382
REMARK  158  A    between atoms: _385  and  _387
REMARK  159  A    between atoms: _387  and  _388
REMARK  160  A    between atoms: _390  and  _392
REMARK  161  A    between atoms: _392  and  _393
REMARK  162  A    between atoms: _392  and  _395
REMARK  163  A    between atoms: _399  and  _400
REMARK  164  A    between atoms: _405  and  _407
REMARK  165  A    between atoms: _407  and  _408
REMARK  166  A    between atoms: _407  and  _410
REMARK  167  A    between atoms: _410  and  _411
REMARK  168  A    between atoms: _414  and  _416
REMARK  169  A    between atoms: _416  and  _417
REMARK  170  A    between atoms: _416  and  _419
REMARK  171  A    between atoms: _422  and  _424
REMARK  172  A    between atoms: _424  and  _425
REMARK  173  A    between atoms: _424  and  _427
REMARK  174  A    between atoms: _427  and  _428
REMARK  175  A    between atoms: _428  and  _429
REMARK  176  A    between atoms: _429  and  _430
REMARK  177  A    between atoms: _439  and  _441
REMARK  178  A    between atoms: _441  and  _442
REMARK  179  A    between atoms: _441  and  _444
REMARK  180  A    between atoms: _444  and  _445
REMARK  181  A    between atoms: _448  and  _450
REMARK  182  A    between atoms: _450  and  _451
REMARK  183  A    between atoms: _454  and  _456
REMARK  184  A    between atoms: _456  and  _457
REMARK  185  A    between atoms: _456  and  _459
REMARK  186  A    between atoms: _459  and  _460
REMARK  187  A    between atoms: _460  and  _461
REMARK  188  A    between atoms: _463  and  _465
REMARK  189  A    between atoms: _465  and  _466
REMARK  190  A    between atoms: _465  and  _468
REMARK  191  A    between atoms: _468  and  _469
REMARK  192  A    between atoms: _471  and  _473
REMARK  193  A    between atoms: _473  and  _474
REMARK  194  A    between atoms: _473  and  _476
REMARK  195  A    between atoms: _476  and  _477
REMARK  196  A    between atoms: _479  and  _481
REMARK  197  A    between atoms: _481  and  _482
REMARK  198  A    between atoms: _481  and  _484
REMARK  199  A    between atoms: _484  and  _485
REMARK  200  A    between atoms: _485  and  _486
REMARK  201  A    between atoms: _486  and  _487
REMARK  202  A    between atoms: _496  and  _498
REMARK  203  A    between atoms: _498  and  _499
REMARK  204  A    between atoms: _498  and  _501
REMARK  205  A    between atoms: _501  and  _502
REMARK  206  A    between atoms: _507  and  _509
REMARK  207  A    between atoms: _509  and  _510
REMARK  208  A    between atoms: _509  and  _512
REMARK  209  A    between atoms: _512  and  _513
REMARK  210  A    between atoms: _513  and  _514
REMARK  211  A    between atoms: _514  and  _515
REMARK  212  A    between atoms: _524  and  _526
REMARK  213  A    between atoms: _526  and  _527
REMARK  214  A    between atoms: _526  and  _529
REMARK  215  A    between atoms: _529  and  _530
REMARK  216  A    between atoms: _533  and  _535
REMARK  217  A    between atoms: _535  and  _536
REMARK  218  A    between atoms: _535  and  _538
REMARK  219  A    between atoms: _538  and  _539
REMARK                            x       y       z     vdW  Elec       q    Type
REMARK                         _______ _______ _______ _____ _____    ______ ____
ROOT
ATOM      1  O   HOH     1      -4.567  -7.471  48.792  0.00  0.00    +0.000 OA
ENDROOT
TORSDOF 0
REMARK  Name = ../refined-set-2016/3ivg/3ivg_pocket.pdb
REMARK  219 active torsions:
REMARK  status: ('A' for Active; 'I' for Inactive)
REMARK    1  A    between atoms: _1  and  _3
REMARK    2  A    between atoms: _3  and  _4
REMARK    3  A    between atoms: _3  and  _6
REMARK    4  A    between atoms: _6  and  _7
REMARK    5  A    between atoms: _10  and  _12
REMARK    6  A    between atoms: _12  and  _13
REMARK    7  A    between atoms: _12  and  _15
REMARK    8  A    between atoms: _19  and  _20
REMARK    9  A    between atoms: _25  and  _27
REMARK   10  A    between atoms: _27  and  _28
REMARK   11  A    between atoms: _27  and  _30
REMARK   12  A    between atoms: _30  and  _31
REMARK   13  A    between atoms: _34  and  _36
REMARK   14  A    between atoms: _36  and  _37
REMARK   15  A    between atoms: _36  and  _39
REMARK   16  A    between atoms: _39  and  _40
REMARK   17  A    between atoms: _40  and  _41
REMARK   18  A    between atoms: _43  and  _45
REMARK   19  A    between atoms: _45  and  _46
REMARK   20  A    between atoms: _48  and  _50
REMARK   21  A    between atoms: _50  and  _51
REMARK   22  A    between atoms: _54  and  _56
REMARK   23  A    between atoms: _56  and  _57
REMARK   24  A    between atoms: _56  and  _59
REMARK   25  A    between atoms: _59  and  _60
REMARK   26  A    between atoms: _63  and  _65
REMARK   27  A    between atoms: _65  and  _66
REMARK   28  A    between atoms: _65  and  _68
REMARK   29  A    between atoms: _68  and  _69
REMARK   30  A    between atoms: _74  and  _76
REMARK   31  A    between atoms: _76  and  _77
REMARK   32  A    between atoms: _76  and  _79
REMARK   33  A    between atoms: _79  and  _80
REMARK   34  A    between atoms: _80  and  _81
REMARK   35  A    between atoms: _84  and  _86
REMARK   36  A    between atoms: _86  and  _87
REMARK   37  A    between atoms: _89  and  _91
REMARK   38  A    between atoms: _91  and  _92
REMARK   39  A    between atoms: _91  and  _94
REMARK   40  A    between atoms: _94  and  _95
REMARK   41  A    between atoms: _100  and  _102
REMARK   42  A    between atoms: _102  and  _103
REMARK   43  A    between atoms: _102  and  _105
REMARK   44  A    between atoms: _105  and  _106
REMARK   45  A    between atoms: _109  and  _111
REMARK   46  A    between atoms: _111  and  _112
REMARK   47  A    between atoms: _115  and  _117
REMARK   48  A    between atoms: _117  and  _118
REMARK   49  A    between atoms: _117  and  _120
REMARK   50  A    between atoms: _120  and  _121
REMARK   51  A    between atoms: _124  and  _126
REMARK   52  A    between atoms: _126  and  _127
REMARK   53  A    between atoms: _126  and  _129
REMARK   54  A    between atoms: _132  and  _134
REMARK   55  A    between atoms: _134  and  _135
REMARK   56  A    between atoms: _138  and  _140
REMARK   57  A    between atoms: _140  and  _141
REMARK   58  A    between atoms: _140  and  _143
REMARK   59  A    between atoms: _146  and  _148
REMARK   60  A    between atoms: _148  and  _149
REMARK   61  A    between atoms: _148  and  _151
REMARK   62  A    between atoms: _151  and  _152
REMARK   63  A    between atoms: _154  and  _156
REMARK   64  A    between atoms: _156  and  _157
REMARK   65  A    between atoms: _156  and  _159
REMARK   66  A    between atoms: _159  and  _160
REMARK   67  A    between atoms: _163  and  _165
REMARK   68  A    between atoms: _165  and  _166
REMARK   69  A    between atoms: _165  and  _168
REMARK   70  A    between atoms: _168  and  _169
REMARK   71  A    between atoms: _175  and  _177
REMARK   72  A    between atoms: _177  and  _178
REMARK   73  A    between atoms: _177  and  _180
REMARK   74  A    between atoms: _183  and  _185
REMARK   75  A    between atoms: _185  and  _186
REMARK   76  A    between atoms: _185  and  _188
REMARK   77  A    between atoms: _188  and  _189
REMARK   78  A    between atoms: _194  and  _196
REMARK   79  A    between atoms: _196  and  _197
REMARK   80  A    between atoms: _196  and  _199
REMARK   81  A    between atoms: _199  and  _200
REMARK   82  A    between atoms: _200  and  _201
REMARK   83  A    between atoms: _206  and  _208
REMARK   84  A    between atoms: _208  and  _209
REMARK   85  A    between atoms: _208  and  _211
REMARK   86  A    between atoms: _211  and  _212
REMARK   87  A    between atoms: _212  and  _213
REMARK   88  A    between atoms: _215  and  _217
REMARK   89  A    between atoms: _217  and  _218
REMARK   90  A    between atoms: _217  and  _220
REMARK   91  A    between atoms: _220  and  _221
REMARK   92  A    between atoms: _226  and  _228
REMARK   93  A    between atoms: _228  and  _229
REMARK   94  A    between atoms: _228  and  _231
REMARK   95  A    between atoms: _231  and  _232
REMARK   96  A    between atoms: _238  and  _240
REMARK   97  A    between atoms: _240  and  _241
REMARK   98  A    between atoms: _243  and  _245
REMARK   99  A    between atoms: _245  and  _246
REMARK  100  A    between atoms: _245  and  _248
REMARK  101  A    between atoms: _251  and  _253
REMARK  102  A    between atoms: _253  and  _254
REMARK  103  A    between atoms: _253  and  _256
REMARK  104  A    between atoms: _256  and  _257
REMARK  105  A    between atoms: _260  and  _262
REMARK  106  A    between atoms: _262  and  _263
REMARK  107  A    between atoms: _262  and  _265
REMARK  108  A    between atoms: _265  and  _266
REMARK  109  A    between atoms: _269  and  _271
REMARK  110  A    between atoms: _271  and  _272
REMARK  111  A    between atoms: _271  and  _274
REMARK  112  A    between atoms: _277  and  _279
REMARK  113  A    between atoms: _279  and  _280
REMARK  114  A    between atoms: _279  and  _282
REMARK  115  A    between atoms: _285  and  _287
REMARK  116  A    between atoms: _287  and  _288
REMARK  117  A    between atoms: _287  and  _290
REMARK  118  A    between atoms: _290  and  _291
REMARK  119  A    between atoms: _294  and  _296
REMARK  120  A    between atoms: _296  and  _297
REMARK  121  A    between atoms: _296  and  _299
REMARK  122  A    between atoms: _299  and  _300
REMARK  123  A    between atoms: _303  and  _305
REMARK  124  A    between atoms: _305  and  _306
REMARK  125  A    between atoms: _305  and  _308
REMARK  126  A    between atoms: _308  and  _309
REMARK  127  A    between atoms: _315  and  _317
REMARK  128  A    between atoms: _317  and  _318
REMARK  129  A    between atoms: _317  and  _320
REMARK  130  A    between atoms: _320  and  _321
REMARK  131  A    between atoms: _327  and  _329
REMARK  132  A    between atoms: _329  and  _330
REMARK  133  A    between atoms: _332  and  _334
REMARK  134  A    between atoms: _334  and  _335
REMARK  135  A    between atoms: _334  and  _337
REMARK  136  A    between atoms: _337  and  _338
REMARK  137  A    between atoms: _338  and  _339
REMARK  138  A    between atoms: _342  and  _344
REMARK  139  A    between atoms: _344  and  _345
REMARK  140  A    between atoms: _344  and  _347
REMARK  141  A    between atoms: _347  and  _348
REMARK  142  A    between atoms: _348  and  _349
REMARK  143  A    between atoms: _349  and  _350
REMARK  144  A    between atoms: _350  and  _351
REMARK  145  A    between atoms: _355  and  _357
REMARK  146  A    between atoms: _357  and  _358
REMARK  147  A    between atoms: _357  and  _360
REMARK  148  A    between atoms: _360  and  _361
REMARK  149  A    between atoms: _364  and  _366
REMARK  150  A    between atoms: _366  and  _367
REMARK  151  A    between atoms: _366  and  _369
REMARK  152  A    between atoms: _369  and  _370
REMARK  153  A    between atoms: _370  and  _371
REMARK  154  A    between atoms: _376  and  _378
REMARK  155  A    between atoms: _378  and  _379
REMARK  156  A    between atoms: _378  and  _381
REMARK  157  A    between atoms: _381  and  _382
REMARK  158  A    between atoms: _385  and  _387
REMARK  159  A    between atoms: _387  and  _388
REMARK  160  A    between atoms: _390  and  _392
REMARK  161  A    between atoms: _392  and  _393
REMARK  162  A    between atoms: _392  and  _395
REMARK  163  A    between atoms: _399  and  _400
REMARK  164  A    between atoms: _405  and  _407
REMARK  165  A    between atoms: _407  and  _408
REMARK  166  A    between atoms: _407  and  _410
REMARK  167  A    between atoms: _410  and  _411
REMARK  168  A    between atoms: _414  and  _416
REMARK  169  A    between atoms: _416  and  _417
REMARK  170  A    between atoms: _416  and  _419
REMARK  171  A    between atoms: _422  and  _424
REMARK  172  A    between atoms: _424  and  _425
REMARK  173  A    between atoms: _424  and  _427
REMARK  174  A    between atoms: _427  and  _428
REMARK  175  A    between atoms: _428  and  _429
REMARK  176  A    between atoms: _429  and  _430
REMARK  177  A    between atoms: _439  and  _441
REMARK  178  A    between atoms: _441  and  _442
REMARK  179  A    between atoms: _441  and  _444
REMARK  180  A    between atoms: _444  and  _445
REMARK  181  A    between atoms: _448  and  _450
REMARK  182  A    between atoms: _450  and  _451
REMARK  183  A    between atoms: _454  and  _456
REMARK  184  A    between atoms: _456  and  _457
REMARK  185  A    between atoms: _456  and  _459
REMARK  186  A    between atoms: _459  and  _460
REMARK  187  A    between atoms: _460  and  _461
REMARK  188  A    between atoms: _463  and  _465
REMARK  189  A    between atoms: _465  and  _466
REMARK  190  A    between atoms: _465  and  _468
REMARK  191  A    between atoms: _468  and  _469
REMARK  192  A    between atoms: _471  and  _473
REMARK  193  A    between atoms: _473  and  _474
REMARK  194  A    between atoms: _473  and  _476
REMARK  195  A    between atoms: _476  and  _477
REMARK  196  A    between atoms: _479  and  _481
REMARK  197  A    between atoms: _481  and  _482
REMARK  198  A    between atoms: _481  and  _484
REMARK  199  A    between atoms: _484  and  _485
REMARK  200  A    between atoms: _485  and  _486
REMARK  201  A    between atoms: _486  and  _487
REMARK  202  A    between atoms: _496  and  _498
REMARK  203  A    between atoms: _498  and  _499
REMARK  204  A    between atoms: _498  and  _501
REMARK  205  A    between atoms: _501  and  _502
REMARK  206  A    between atoms: _507  and  _509
REMARK  207  A    between atoms: _509  and  _510
REMARK  208  A    between atoms: _509  and  _512
REMARK  209  A    between atoms: _512  and  _513
REMARK  210  A    between atoms: _513  and  _514
REMARK  211  A    between atoms: _514  and  _515
REMARK  212  A    between atoms: _524  and  _526
REMARK  213  A    between atoms: _526  and  _527
REMARK  214  A    between atoms: _526  and  _529
REMARK  215  A    between atoms: _529  and  _530
REMARK  216  A    between atoms: _533  and  _535
REMARK  217  A    between atoms: _535  and  _536
REMARK  218  A    between atoms: _535  and  _538
REMARK  219  A    between atoms: _538  and  _539
REMARK                            x       y       z     vdW  Elec       q    Type
REMARK                         _______ _______ _______ _____ _____    ______ ____
ROOT
ATOM      1  O   HOH     1       4.754 -14.624  45.594  0.00  0.00    +0.000 OA
ENDROOT
TORSDOF 0
REMARK  Name = ../refined-set-2016/3ivg/3ivg_pocket.pdb
REMARK  219 active torsions:
REMARK  status: ('A' for Active; 'I' for Inactive)
REMARK    1  A    between atoms: _1  and  _3
REMARK    2  A    between atoms: _3  and  _4
REMARK    3  A    between atoms: _3  and  _6
REMARK    4  A    between atoms: _6  and  _7
REMARK    5  A    between atoms: _10  and  _12
REMARK    6  A    between atoms: _12  and  _13
REMARK    7  A    between atoms: _12  and  _15
REMARK    8  A    between atoms: _19  and  _20
REMARK    9  A    between atoms: _25  and  _27
REMARK   10  A    between atoms: _27  and  _28
REMARK   11  A    between atoms: _27  and  _30
REMARK   12  A    between atoms: _30  and  _31
REMARK   13  A    between atoms: _34  and  _36
REMARK   14  A    between atoms: _36  and  _37
REMARK   15  A    between atoms: _36  and  _39
REMARK   16  A    between atoms: _39  and  _40
REMARK   17  A    between atoms: _40  and  _41
REMARK   18  A    between atoms: _43  and  _45
REMARK   19  A    between atoms: _45  and  _46
REMARK   20  A    between atoms: _48  and  _50
REMARK   21  A    between atoms: _50  and  _51
REMARK   22  A    between atoms: _54  and  _56
REMARK   23  A    between atoms: _56  and  _57
REMARK   24  A    between atoms: _56  and  _59
REMARK   25  A    between atoms: _59  and  _60
REMARK   26  A    between atoms: _63  and  _65
REMARK   27  A    between atoms: _65  and  _66
REMARK   28  A    between atoms: _65  and  _68
REMARK   29  A    between atoms: _68  and  _69
REMARK   30  A    between atoms: _74  and  _76
REMARK   31  A    between atoms: _76  and  _77
REMARK   32  A    between atoms: _76  and  _79
REMARK   33  A    between atoms: _79  and  _80
REMARK   34  A    between atoms: _80  and  _81
REMARK   35  A    between atoms: _84  and  _86
REMARK   36  A    between atoms: _86  and  _87
REMARK   37  A    between atoms: _89  and  _91
REMARK   38  A    between atoms: _91  and  _92
REMARK   39  A    between atoms: _91  and  _94
REMARK   40  A    between atoms: _94  and  _95
REMARK   41  A    between atoms: _100  and  _102
REMARK   42  A    between atoms: _102  and  _103
REMARK   43  A    between atoms: _102  and  _105
REMARK   44  A    between atoms: _105  and  _106
REMARK   45  A    between atoms: _109  and  _111
REMARK   46  A    between atoms: _111  and  _112
REMARK   47  A    between atoms: _115  and  _117
REMARK   48  A    between atoms: _117  and  _118
REMARK   49  A    between atoms: _117  and  _120
REMARK   50  A    between atoms: _120  and  _121
REMARK   51  A    between atoms: _124  and  _126
REMARK   52  A    between atoms: _126  and  _127
REMARK   53  A    between atoms: _126  and  _129
REMARK   54  A    between atoms: _132  and  _134
REMARK   55  A    between atoms: _134  and  _135
REMARK   56  A    between atoms: _138  and  _140
REMARK   57  A    between atoms: _140  and  _141
REMARK   58  A    between atoms: _140  and  _143
REMARK   59  A    between atoms: _146  and  _148
REMARK   60  A    between atoms: _148  and  _149
REMARK   61  A    between atoms: _148  and  _151
REMARK   62  A    between atoms: _151  and  _152
REMARK   63  A    between atoms: _154  and  _156
REMARK   64  A    between atoms: _156  and  _157
REMARK   65  A    between atoms: _156  and  _159
REMARK   66  A    between atoms: _159  and  _160
REMARK   67  A    between atoms: _163  and  _165
REMARK   68  A    between atoms: _165  and  _166
REMARK   69  A    between atoms: _165  and  _168
REMARK   70  A    between atoms: _168  and  _169
REMARK   71  A    between atoms: _175  and  _177
REMARK   72  A    between atoms: _177  and  _178
REMARK   73  A    between atoms: _177  and  _180
REMARK   74  A    between atoms: _183  and  _185
REMARK   75  A    between atoms: _185  and  _186
REMARK   76  A    between atoms: _185  and  _188
REMARK   77  A    between atoms: _188  and  _189
REMARK   78  A    between atoms: _194  and  _196
REMARK   79  A    between atoms: _196  and  _197
REMARK   80  A    between atoms: _196  and  _199
REMARK   81  A    between atoms: _199  and  _200
REMARK   82  A    between atoms: _200  and  _201
REMARK   83  A    between atoms: _206  and  _208
REMARK   84  A    between atoms: _208  and  _209
REMARK   85  A    between atoms: _208  and  _211
REMARK   86  A    between atoms: _211  and  _212
REMARK   87  A    between atoms: _212  and  _213
REMARK   88  A    between atoms: _215  and  _217
REMARK   89  A    between atoms: _217  and  _218
REMARK   90  A    between atoms: _217  and  _220
REMARK   91  A    between atoms: _220  and  _221
REMARK   92  A    between atoms: _226  and  _228
REMARK   93  A    between atoms: _228  and  _229
REMARK   94  A    between atoms: _228  and  _231
REMARK   95  A    between atoms: _231  and  _232
REMARK   96  A    between atoms: _238  and  _240
REMARK   97  A    between atoms: _240  and  _241
REMARK   98  A    between atoms: _243  and  _245
REMARK   99  A    between atoms: _245  and  _246
REMARK  100  A    between atoms: _245  and  _248
REMARK  101  A    between atoms: _251  and  _253
REMARK  102  A    between atoms: _253  and  _254
REMARK  103  A    between atoms: _253  and  _256
REMARK  104  A    between atoms: _256  and  _257
REMARK  105  A    between atoms: _260  and  _262
REMARK  106  A    between atoms: _262  and  _263
REMARK  107  A    between atoms: _262  and  _265
REMARK  108  A    between atoms: _265  and  _266
REMARK  109  A    between atoms: _269  and  _271
REMARK  110  A    between atoms: _271  and  _272
REMARK  111  A    between atoms: _271  and  _274
REMARK  112  A    between atoms: _277  and  _279
REMARK  113  A    between atoms: _279  and  _280
REMARK  114  A    between atoms: _279  and  _282
REMARK  115  A    between atoms: _285  and  _287
REMARK  116  A    between atoms: _287  and  _288
REMARK  117  A    between atoms: _287  and  _290
REMARK  118  A    between atoms: _290  and  _291
REMARK  119  A    between atoms: _294  and  _296
REMARK  120  A    between atoms: _296  and  _297
REMARK  121  A    between atoms: _296  and  _299
REMARK  122  A    between atoms: _299  and  _300
REMARK  123  A    between atoms: _303  and  _305
REMARK  124  A    between atoms: _305  and  _306
REMARK  125  A    between atoms: _305  and  _308
REMARK  126  A    between atoms: _308  and  _309
REMARK  127  A    between atoms: _315  and  _317
REMARK  128  A    between atoms: _317  and  _318
REMARK  129  A    between atoms: _317  and  _320
REMARK  130  A    between atoms: _320  and  _321
REMARK  131  A    between atoms: _327  and  _329
REMARK  132  A    between atoms: _329  and  _330
REMARK  133  A    between atoms: _332  and  _334
REMARK  134  A    between atoms: _334  and  _335
REMARK  135  A    between atoms: _334  and  _337
REMARK  136  A    between atoms: _337  and  _338
REMARK  137  A    between atoms: _338  and  _339
REMARK  138  A    between atoms: _342  and  _344
REMARK  139  A    between atoms: _344  and  _345
REMARK  140  A    between atoms: _344  and  _347
REMARK  141  A    between atoms: _347  and  _348
REMARK  142  A    between atoms: _348  and  _349
REMARK  143  A    between atoms: _349  and  _350
REMARK  144  A    between atoms: _350  and  _351
REMARK  145  A    between atoms: _355  and  _357
REMARK  146  A    between atoms: _357  and  _358
REMARK  147  A    between atoms: _357  and  _360
REMARK  148  A    between atoms: _360  and  _361
REMARK  149  A    between atoms: _364  and  _366
REMARK  150  A    between atoms: _366  and  _367
REMARK  151  A    between atoms: _366  and  _369
REMARK  152  A    between atoms: _369  and  _370
REMARK  153  A    between atoms: _370  and  _371
REMARK  154  A    between atoms: _376  and  _378
REMARK  155  A    between atoms: _378  and  _379
REMARK  156  A    between atoms: _378  and  _381
REMARK  157  A    between atoms: _381  and  _382
REMARK  158  A    between atoms: _385  and  _387
REMARK  159  A    between atoms: _387  and  _388
REMARK  160  A    between atoms: _390  and  _392
REMARK  161  A    between atoms: _392  and  _393
REMARK  162  A    between atoms: _392  and  _395
REMARK  163  A    between atoms: _399  and  _400
REMARK  164  A    between atoms: _405  and  _407
REMARK  165  A    between atoms: _407  and  _408
REMARK  166  A    between atoms: _407  and  _410
REMARK  167  A    between atoms: _410  and  _411
REMARK  168  A    between atoms: _414  and  _416
REMARK  169  A    between atoms: _416  and  _417
REMARK  170  A    between atoms: _416  and  _419
REMARK  171  A    between atoms: _422  and  _424
REMARK  172  A    between atoms: _424  and  _425
REMARK  173  A    between atoms: _424  and  _427
REMARK  174  A    between atoms: _427  and  _428
REMARK  175  A    between atoms: _428  and  _429
REMARK  176  A    between atoms: _429  and  _430
REMARK  177  A    between atoms: _439  and  _441
REMARK  178  A    between atoms: _441  and  _442
REMARK  179  A    between atoms: _441  and  _444
REMARK  180  A    between atoms: _444  and  _445
REMARK  181  A    between atoms: _448  and  _450
REMARK  182  A    between atoms: _450  and  _451
REMARK  183  A    between atoms: _454  and  _456
REMARK  184  A    between atoms: _456  and  _457
REMARK  185  A    between atoms: _456  and  _459
REMARK  186  A    between atoms: _459  and  _460
REMARK  187  A    between atoms: _460  and  _461
REMARK  188  A    between atoms: _463  and  _465
REMARK  189  A    between atoms: _465  and  _466
REMARK  190  A    between atoms: _465  and  _468
REMARK  191  A    between atoms: _468  and  _469
REMARK  192  A    between atoms: _471  and  _473
REMARK  193  A    between atoms: _473  and  _474
REMARK  194  A    between atoms: _473  and  _476
REMARK  195  A    between atoms: _476  and  _477
REMARK  196  A    between atoms: _479  and  _481
REMARK  197  A    between atoms: _481  and  _482
REMARK  198  A    between atoms: _481  and  _484
REMARK  199  A    between atoms: _484  and  _485
REMARK  200  A    between atoms: _485  and  _486
REMARK  201  A    between atoms: _486  and  _487
REMARK  202  A    between atoms: _496  and  _498
REMARK  203  A    between atoms: _498  and  _499
REMARK  204  A    between atoms: _498  and  _501
REMARK  205  A    between atoms: _501  and  _502
REMARK  206  A    between atoms: _507  and  _509
REMARK  207  A    between atoms: _509  and  _510
REMARK  208  A    between atoms: _509  and  _512
REMARK  209  A    between atoms: _512  and  _513
REMARK  210  A    between atoms: _513  and  _514
REMARK  211  A    between atoms: _514  and  _515
REMARK  212  A    between atoms: _524  and  _526
REMARK  213  A    between atoms: _526  and  _527
REMARK  214  A    between atoms: _526  and  _529
REMARK  215  A    between atoms: _529  and  _530
REMARK  216  A    between atoms: _533  and  _535
REMARK  217  A    between atoms: _535  and  _536
REMARK  218  A    between atoms: _535  and  _538
REMARK  219  A    between atoms: _538  and  _539
REMARK                            x       y       z     vdW  Elec       q    Type
REMARK                         _______ _______ _______ _____ _____    ______ ____
ROOT
ATOM      1  O   HOH     1       0.539  -7.188  35.057  0.00  0.00    +0.000 OA
ENDROOT
TORSDOF 0
REMARK  Name = ../refined-set-2016/3ivg/3ivg_pocket.pdb
REMARK  219 active torsions:
REMARK  status: ('A' for Active; 'I' for Inactive)
REMARK    1  A    between atoms: _1  and  _3
REMARK    2  A    between atoms: _3  and  _4
REMARK    3  A    between atoms: _3  and  _6
REMARK    4  A    between atoms: _6  and  _7
REMARK    5  A    between atoms: _10  and  _12
REMARK    6  A    between atoms: _12  and  _13
REMARK    7  A    between atoms: _12  and  _15
REMARK    8  A    between atoms: _19  and  _20
REMARK    9  A    between atoms: _25  and  _27
REMARK   10  A    between atoms: _27  and  _28
REMARK   11  A    between atoms: _27  and  _30
REMARK   12  A    between atoms: _30  and  _31
REMARK   13  A    between atoms: _34  and  _36
REMARK   14  A    between atoms: _36  and  _37
REMARK   15  A    between atoms: _36  and  _39
REMARK   16  A    between atoms: _39  and  _40
REMARK   17  A    between atoms: _40  and  _41
REMARK   18  A    between atoms: _43  and  _45
REMARK   19  A    between atoms: _45  and  _46
REMARK   20  A    between atoms: _48  and  _50
REMARK   21  A    between atoms: _50  and  _51
REMARK   22  A    between atoms: _54  and  _56
REMARK   23  A    between atoms: _56  and  _57
REMARK   24  A    between atoms: _56  and  _59
REMARK   25  A    between atoms: _59  and  _60
REMARK   26  A    between atoms: _63  and  _65
REMARK   27  A    between atoms: _65  and  _66
REMARK   28  A    between atoms: _65  and  _68
REMARK   29  A    between atoms: _68  and  _69
REMARK   30  A    between atoms: _74  and  _76
REMARK   31  A    between atoms: _76  and  _77
REMARK   32  A    between atoms: _76  and  _79
REMARK   33  A    between atoms: _79  and  _80
REMARK   34  A    between atoms: _80  and  _81
REMARK   35  A    between atoms: _84  and  _86
REMARK   36  A    between atoms: _86  and  _87
REMARK   37  A    between atoms: _89  and  _91
REMARK   38  A    between atoms: _91  and  _92
REMARK   39  A    between atoms: _91  and  _94
REMARK   40  A    between atoms: _94  and  _95
REMARK   41  A    between atoms: _100  and  _102
REMARK   42  A    between atoms: _102  and  _103
REMARK   43  A    between atoms: _102  and  _105
REMARK   44  A    between atoms: _105  and  _106
REMARK   45  A    between atoms: _109  and  _111
REMARK   46  A    between atoms: _111  and  _112
REMARK   47  A    between atoms: _115  and  _117
REMARK   48  A    between atoms: _117  and  _118
REMARK   49  A    between atoms: _117  and  _120
REMARK   50  A    between atoms: _120  and  _121
REMARK   51  A    between atoms: _124  and  _126
REMARK   52  A    between atoms: _126  and  _127
REMARK   53  A    between atoms: _126  and  _129
REMARK   54  A    between atoms: _132  and  _134
REMARK   55  A    between atoms: _134  and  _135
REMARK   56  A    between atoms: _138  and  _140
REMARK   57  A    between atoms: _140  and  _141
REMARK   58  A    between atoms: _140  and  _143
REMARK   59  A    between atoms: _146  and  _148
REMARK   60  A    between atoms: _148  and  _149
REMARK   61  A    between atoms: _148  and  _151
REMARK   62  A    between atoms: _151  and  _152
REMARK   63  A    between atoms: _154  and  _156
REMARK   64  A    between atoms: _156  and  _157
REMARK   65  A    between atoms: _156  and  _159
REMARK   66  A    between atoms: _159  and  _160
REMARK   67  A    between atoms: _163  and  _165
REMARK   68  A    between atoms: _165  and  _166
REMARK   69  A    between atoms: _165  and  _168
REMARK   70  A    between atoms: _168  and  _169
REMARK   71  A    between atoms: _175  and  _177
REMARK   72  A    between atoms: _177  and  _178
REMARK   73  A    between atoms: _177  and  _180
REMARK   74  A    between atoms: _183  and  _185
REMARK   75  A    between atoms: _185  and  _186
REMARK   76  A    between atoms: _185  and  _188
REMARK   77  A    between atoms: _188  and  _189
REMARK   78  A    between atoms: _194  and  _196
REMARK   79  A    between atoms: _196  and  _197
REMARK   80  A    between atoms: _196  and  _199
REMARK   81  A    between atoms: _199  and  _200
REMARK   82  A    between atoms: _200  and  _201
REMARK   83  A    between atoms: _206  and  _208
REMARK   84  A    between atoms: _208  and  _209
REMARK   85  A    between atoms: _208  and  _211
REMARK   86  A    between atoms: _211  and  _212
REMARK   87  A    between atoms: _212  and  _213
REMARK   88  A    between atoms: _215  and  _217
REMARK   89  A    between atoms: _217  and  _218
REMARK   90  A    between atoms: _217  and  _220
REMARK   91  A    between atoms: _220  and  _221
REMARK   92  A    between atoms: _226  and  _228
REMARK   93  A    between atoms: _228  and  _229
REMARK   94  A    between atoms: _228  and  _231
REMARK   95  A    between atoms: _231  and  _232
REMARK   96  A    between atoms: _238  and  _240
REMARK   97  A    between atoms: _240  and  _241
REMARK   98  A    between atoms: _243  and  _245
REMARK   99  A    between atoms: _245  and  _246
REMARK  100  A    between atoms: _245  and  _248
REMARK  101  A    between atoms: _251  and  _253
REMARK  102  A    between atoms: _253  and  _254
REMARK  103  A    between atoms: _253  and  _256
REMARK  104  A    between atoms: _256  and  _257
REMARK  105  A    between atoms: _260  and  _262
REMARK  106  A    between atoms: _262  and  _263
REMARK  107  A    between atoms: _262  and  _265
REMARK  108  A    between atoms: _265  and  _266
REMARK  109  A    between atoms: _269  and  _271
REMARK  110  A    between atoms: _271  and  _272
REMARK  111  A    between atoms: _271  and  _274
REMARK  112  A    between atoms: _277  and  _279
REMARK  113  A    between atoms: _279  and  _280
REMARK  114  A    between atoms: _279  and  _282
REMARK  115  A    between atoms: _285  and  _287
REMARK  116  A    between atoms: _287  and  _288
REMARK  117  A    between atoms: _287  and  _290
REMARK  118  A    between atoms: _290  and  _291
REMARK  119  A    between atoms: _294  and  _296
REMARK  120  A    between atoms: _296  and  _297
REMARK  121  A    between atoms: _296  and  _299
REMARK  122  A    between atoms: _299  and  _300
REMARK  123  A    between atoms: _303  and  _305
REMARK  124  A    between atoms: _305  and  _306
REMARK  125  A    between atoms: _305  and  _308
REMARK  126  A    between atoms: _308  and  _309
REMARK  127  A    between atoms: _315  and  _317
REMARK  128  A    between atoms: _317  and  _318
REMARK  129  A    between atoms: _317  and  _320
REMARK  130  A    between atoms: _320  and  _321
REMARK  131  A    between atoms: _327  and  _329
REMARK  132  A    between atoms: _329  and  _330
REMARK  133  A    between atoms: _332  and  _334
REMARK  134  A    between atoms: _334  and  _335
REMARK  135  A    between atoms: _334  and  _337
REMARK  136  A    between atoms: _337  and  _338
REMARK  137  A    between atoms: _338  and  _339
REMARK  138  A    between atoms: _342  and  _344
REMARK  139  A    between atoms: _344  and  _345
REMARK  140  A    between atoms: _344  and  _347
REMARK  141  A    between atoms: _347  and  _348
REMARK  142  A    between atoms: _348  and  _349
REMARK  143  A    between atoms: _349  and  _350
REMARK  144  A    between atoms: _350  and  _351
REMARK  145  A    between atoms: _355  and  _357
REMARK  146  A    between atoms: _357  and  _358
REMARK  147  A    between atoms: _357  and  _360
REMARK  148  A    between atoms: _360  and  _361
REMARK  149  A    between atoms: _364  and  _366
REMARK  150  A    between atoms: _366  and  _367
REMARK  151  A    between atoms: _366  and  _369
REMARK  152  A    between atoms: _369  and  _370
REMARK  153  A    between atoms: _370  and  _371
REMARK  154  A    between atoms: _376  and  _378
REMARK  155  A    between atoms: _378  and  _379
REMARK  156  A    between atoms: _378  and  _381
REMARK  157  A    between atoms: _381  and  _382
REMARK  158  A    between atoms: _385  and  _387
REMARK  159  A    between atoms: _387  and  _388
REMARK  160  A    between atoms: _390  and  _392
REMARK  161  A    between atoms: _392  and  _393
REMARK  162  A    between atoms: _392  and  _395
REMARK  163  A    between atoms: _399  and  _400
REMARK  164  A    between atoms: _405  and  _407
REMARK  165  A    between atoms: _407  and  _408
REMARK  166  A    between atoms: _407  and  _410
REMARK  167  A    between atoms: _410  and  _411
REMARK  168  A    between atoms: _414  and  _416
REMARK  169  A    between atoms: _416  and  _417
REMARK  170  A    between atoms: _416  and  _419
REMARK  171  A    between atoms: _422  and  _424
REMARK  172  A    between atoms: _424  and  _425
REMARK  173  A    between atoms: _424  and  _427
REMARK  174  A    between atoms: _427  and  _428
REMARK  175  A    between atoms: _428  and  _429
REMARK  176  A    between atoms: _429  and  _430
REMARK  177  A    between atoms: _439  and  _441
REMARK  178  A    between atoms: _441  and  _442
REMARK  179  A    between atoms: _441  and  _444
REMARK  180  A    between atoms: _444  and  _445
REMARK  181  A    between atoms: _448  and  _450
REMARK  182  A    between atoms: _450  and  _451
REMARK  183  A    between atoms: _454  and  _456
REMARK  184  A    between atoms: _456  and  _457
REMARK  185  A    between atoms: _456  and  _459
REMARK  186  A    between atoms: _459  and  _460
REMARK  187  A    between atoms: _460  and  _461
REMARK  188  A    between atoms: _463  and  _465
REMARK  189  A    between atoms: _465  and  _466
REMARK  190  A    between atoms: _465  and  _468
REMARK  191  A    between atoms: _468  and  _469
REMARK  192  A    between atoms: _471  and  _473
REMARK  193  A    between atoms: _473  and  _474
REMARK  194  A    between atoms: _473  and  _476
REMARK  195  A    between atoms: _476  and  _477
REMARK  196  A    between atoms: _479  and  _481
REMARK  197  A    between atoms: _481  and  _482
REMARK  198  A    between atoms: _481  and  _484
REMARK  199  A    between atoms: _484  and  _485
REMARK  200  A    between atoms: _485  and  _486
REMARK  201  A    between atoms: _486  and  _487
REMARK  202  A    between atoms: _496  and  _498
REMARK  203  A    between atoms: _498  and  _499
REMARK  204  A    between atoms: _498  and  _501
REMARK  205  A    between atoms: _501  and  _502
REMARK  206  A    between atoms: _507  and  _509
REMARK  207  A    between atoms: _509  and  _510
REMARK  208  A    between atoms: _509  and  _512
REMARK  209  A    between atoms: _512  and  _513
REMARK  210  A    between atoms: _513  and  _514
REMARK  211  A    between atoms: _514  and  _515
REMARK  212  A    between atoms: _524  and  _526
REMARK  213  A    between atoms: _526  and  _527
REMARK  214  A    between atoms: _526  and  _529
REMARK  215  A    between atoms: _529  and  _530
REMARK  216  A    between atoms: _533  and  _535
REMARK  217  A    between atoms: _535  and  _536
REMARK  218  A    between atoms: _535  and  _538
REMARK  219  A    between atoms: _538  and  _539
REMARK                            x       y       z     vdW  Elec       q    Type
REMARK                         _______ _______ _______ _____ _____    ______ ____
ROOT
ATOM      1  O   HOH     1       3.995  -4.833  44.812  0.00  0.00    +0.000 OA
ENDROOT
TORSDOF 0
REMARK  Name = ../refined-set-2016/3ivg/3ivg_pocket.pdb
REMARK  219 active torsions:
REMARK  status: ('A' for Active; 'I' for Inactive)
REMARK    1  A    between atoms: _1  and  _3
REMARK    2  A    between atoms: _3  and  _4
REMARK    3  A    between atoms: _3  and  _6
REMARK    4  A    between atoms: _6  and  _7
REMARK    5  A    between atoms: _10  and  _12
REMARK    6  A    between atoms: _12  and  _13
REMARK    7  A    between atoms: _12  and  _15
REMARK    8  A    between atoms: _19  and  _20
REMARK    9  A    between atoms: _25  and  _27
REMARK   10  A    between atoms: _27  and  _28
REMARK   11  A    between atoms: _27  and  _30
REMARK   12  A    between atoms: _30  and  _31
REMARK   13  A    between atoms: _34  and  _36
REMARK   14  A    between atoms: _36  and  _37
REMARK   15  A    between atoms: _36  and  _39
REMARK   16  A    between atoms: _39  and  _40
REMARK   17  A    between atoms: _40  and  _41
REMARK   18  A    between atoms: _43  and  _45
REMARK   19  A    between atoms: _45  and  _46
REMARK   20  A    between atoms: _48  and  _50
REMARK   21  A    between atoms: _50  and  _51
REMARK   22  A    between atoms: _54  and  _56
REMARK   23  A    between atoms: _56  and  _57
REMARK   24  A    between atoms: _56  and  _59
REMARK   25  A    between atoms: _59  and  _60
REMARK   26  A    between atoms: _63  and  _65
REMARK   27  A    between atoms: _65  and  _66
REMARK   28  A    between atoms: _65  and  _68
REMARK   29  A    between atoms: _68  and  _69
REMARK   30  A    between atoms: _74  and  _76
REMARK   31  A    between atoms: _76  and  _77
REMARK   32  A    between atoms: _76  and  _79
REMARK   33  A    between atoms: _79  and  _80
REMARK   34  A    between atoms: _80  and  _81
REMARK   35  A    between atoms: _84  and  _86
REMARK   36  A    between atoms: _86  and  _87
REMARK   37  A    between atoms: _89  and  _91
REMARK   38  A    between atoms: _91  and  _92
REMARK   39  A    between atoms: _91  and  _94
REMARK   40  A    between atoms: _94  and  _95
REMARK   41  A    between atoms: _100  and  _102
REMARK   42  A    between atoms: _102  and  _103
REMARK   43  A    between atoms: _102  and  _105
REMARK   44  A    between atoms: _105  and  _106
REMARK   45  A    between atoms: _109  and  _111
REMARK   46  A    between atoms: _111  and  _112
REMARK   47  A    between atoms: _115  and  _117
REMARK   48  A    between atoms: _117  and  _118
REMARK   49  A    between atoms: _117  and  _120
REMARK   50  A    between atoms: _120  and  _121
REMARK   51  A    between atoms: _124  and  _126
REMARK   52  A    between atoms: _126  and  _127
REMARK   53  A    between atoms: _126  and  _129
REMARK   54  A    between atoms: _132  and  _134
REMARK   55  A    between atoms: _134  and  _135
REMARK   56  A    between atoms: _138  and  _140
REMARK   57  A    between atoms: _140  and  _141
REMARK   58  A    between atoms: _140  and  _143
REMARK   59  A    between atoms: _146  and  _148
REMARK   60  A    between atoms: _148  and  _149
REMARK   61  A    between atoms: _148  and  _151
REMARK   62  A    between atoms: _151  and  _152
REMARK   63  A    between atoms: _154  and  _156
REMARK   64  A    between atoms: _156  and  _157
REMARK   65  A    between atoms: _156  and  _159
REMARK   66  A    between atoms: _159  and  _160
REMARK   67  A    between atoms: _163  and  _165
REMARK   68  A    between atoms: _165  and  _166
REMARK   69  A    between atoms: _165  and  _168
REMARK   70  A    between atoms: _168  and  _169
REMARK   71  A    between atoms: _175  and  _177
REMARK   72  A    between atoms: _177  and  _178
REMARK   73  A    between atoms: _177  and  _180
REMARK   74  A    between atoms: _183  and  _185
REMARK   75  A    between atoms: _185  and  _186
REMARK   76  A    between atoms: _185  and  _188
REMARK   77  A    between atoms: _188  and  _189
REMARK   78  A    between atoms: _194  and  _196
REMARK   79  A    between atoms: _196  and  _197
REMARK   80  A    between atoms: _196  and  _199
REMARK   81  A    between atoms: _199  and  _200
REMARK   82  A    between atoms: _200  and  _201
REMARK   83  A    between atoms: _206  and  _208
REMARK   84  A    between atoms: _208  and  _209
REMARK   85  A    between atoms: _208  and  _211
REMARK   86  A    between atoms: _211  and  _212
REMARK   87  A    between atoms: _212  and  _213
REMARK   88  A    between atoms: _215  and  _217
REMARK   89  A    between atoms: _217  and  _218
REMARK   90  A    between atoms: _217  and  _220
REMARK   91  A    between atoms: _220  and  _221
REMARK   92  A    between atoms: _226  and  _228
REMARK   93  A    between atoms: _228  and  _229
REMARK   94  A    between atoms: _228  and  _231
REMARK   95  A    between atoms: _231  and  _232
REMARK   96  A    between atoms: _238  and  _240
REMARK   97  A    between atoms: _240  and  _241
REMARK   98  A    between atoms: _243  and  _245
REMARK   99  A    between atoms: _245  and  _246
REMARK  100  A    between atoms: _245  and  _248
REMARK  101  A    between atoms: _251  and  _253
REMARK  102  A    between atoms: _253  and  _254
REMARK  103  A    between atoms: _253  and  _256
REMARK  104  A    between atoms: _256  and  _257
REMARK  105  A    between atoms: _260  and  _262
REMARK  106  A    between atoms: _262  and  _263
REMARK  107  A    between atoms: _262  and  _265
REMARK  108  A    between atoms: _265  and  _266
REMARK  109  A    between atoms: _269  and  _271
REMARK  110  A    between atoms: _271  and  _272
REMARK  111  A    between atoms: _271  and  _274
REMARK  112  A    between atoms: _277  and  _279
REMARK  113  A    between atoms: _279  and  _280
REMARK  114  A    between atoms: _279  and  _282
REMARK  115  A    between atoms: _285  and  _287
REMARK  116  A    between atoms: _287  and  _288
REMARK  117  A    between atoms: _287  and  _290
REMARK  118  A    between atoms: _290  and  _291
REMARK  119  A    between atoms: _294  and  _296
REMARK  120  A    between atoms: _296  and  _297
REMARK  121  A    between atoms: _296  and  _299
REMARK  122  A    between atoms: _299  and  _300
REMARK  123  A    between atoms: _303  and  _305
REMARK  124  A    between atoms: _305  and  _306
REMARK  125  A    between atoms: _305  and  _308
REMARK  126  A    between atoms: _308  and  _309
REMARK  127  A    between atoms: _315  and  _317
REMARK  128  A    between atoms: _317  and  _318
REMARK  129  A    between atoms: _317  and  _320
REMARK  130  A    between atoms: _320  and  _321
REMARK  131  A    between atoms: _327  and  _329
REMARK  132  A    between atoms: _329  and  _330
REMARK  133  A    between atoms: _332  and  _334
REMARK  134  A    between atoms: _334  and  _335
REMARK  135  A    between atoms: _334  and  _337
REMARK  136  A    between atoms: _337  and  _338
REMARK  137  A    between atoms: _338  and  _339
REMARK  138  A    between atoms: _342  and  _344
REMARK  139  A    between atoms: _344  and  _345
REMARK  140  A    between atoms: _344  and  _347
REMARK  141  A    between atoms: _347  and  _348
REMARK  142  A    between atoms: _348  and  _349
REMARK  143  A    between atoms: _349  and  _350
REMARK  144  A    between atoms: _350  and  _351
REMARK  145  A    between atoms: _355  and  _357
REMARK  146  A    between atoms: _357  and  _358
REMARK  147  A    between atoms: _357  and  _360
REMARK  148  A    between atoms: _360  and  _361
REMARK  149  A    between atoms: _364  and  _366
REMARK  150  A    between atoms: _366  and  _367
REMARK  151  A    between atoms: _366  and  _369
REMARK  152  A    between atoms: _369  and  _370
REMARK  153  A    between atoms: _370  and  _371
REMARK  154  A    between atoms: _376  and  _378
REMARK  155  A    between atoms: _378  and  _379
REMARK  156  A    between atoms: _378  and  _381
REMARK  157  A    between atoms: _381  and  _382
REMARK  158  A    between atoms: _385  and  _387
REMARK  159  A    between atoms: _387  and  _388
REMARK  160  A    between atoms: _390  and  _392
REMARK  161  A    between atoms: _392  and  _393
REMARK  162  A    between atoms: _392  and  _395
REMARK  163  A    between atoms: _399  and  _400
REMARK  164  A    between atoms: _405  and  _407
REMARK  165  A    between atoms: _407  and  _408
REMARK  166  A    between atoms: _407  and  _410
REMARK  167  A    between atoms: _410  and  _411
REMARK  168  A    between atoms: _414  and  _416
REMARK  169  A    between atoms: _416  and  _417
REMARK  170  A    between atoms: _416  and  _419
REMARK  171  A    between atoms: _422  and  _424
REMARK  172  A    between atoms: _424  and  _425
REMARK  173  A    between atoms: _424  and  _427
REMARK  174  A    between atoms: _427  and  _428
REMARK  175  A    between atoms: _428  and  _429
REMARK  176  A    between atoms: _429  and  _430
REMARK  177  A    between atoms: _439  and  _441
REMARK  178  A    between atoms: _441  and  _442
REMARK  179  A    between atoms: _441  and  _444
REMARK  180  A    between atoms: _444  and  _445
REMARK  181  A    between atoms: _448  and  _450
REMARK  182  A    between atoms: _450  and  _451
REMARK  183  A    between atoms: _454  and  _456
REMARK  184  A    between atoms: _456  and  _457
REMARK  185  A    between atoms: _456  and  _459
REMARK  186  A    between atoms: _459  and  _460
REMARK  187  A    between atoms: _460  and  _461
REMARK  188  A    between atoms: _463  and  _465
REMARK  189  A    between atoms: _465  and  _466
REMARK  190  A    between atoms: _465  and  _468
REMARK  191  A    between atoms: _468  and  _469
REMARK  192  A    between atoms: _471  and  _473
REMARK  193  A    between atoms: _473  and  _474
REMARK  194  A    between atoms: _473  and  _476
REMARK  195  A    between atoms: _476  and  _477
REMARK  196  A    between atoms: _479  and  _481
REMARK  197  A    between atoms: _481  and  _482
REMARK  198  A    between atoms: _481  and  _484
REMARK  199  A    between atoms: _484  and  _485
REMARK  200  A    between atoms: _485  and  _486
REMARK  201  A    between atoms: _486  and  _487
REMARK  202  A    between atoms: _496  and  _498
REMARK  203  A    between atoms: _498  and  _499
REMARK  204  A    between atoms: _498  and  _501
REMARK  205  A    between atoms: _501  and  _502
REMARK  206  A    between atoms: _507  and  _509
REMARK  207  A    between atoms: _509  and  _510
REMARK  208  A    between atoms: _509  and  _512
REMARK  209  A    between atoms: _512  and  _513
REMARK  210  A    between atoms: _513  and  _514
REMARK  211  A    between atoms: _514  and  _515
REMARK  212  A    between atoms: _524  and  _526
REMARK  213  A    between atoms: _526  and  _527
REMARK  214  A    between atoms: _526  and  _529
REMARK  215  A    between atoms: _529  and  _530
REMARK  216  A    between atoms: _533  and  _535
REMARK  217  A    between atoms: _535  and  _536
REMARK  218  A    between atoms: _535  and  _538
REMARK  219  A    between atoms: _538  and  _539
REMARK                            x       y       z     vdW  Elec       q    Type
REMARK                         _______ _______ _______ _____ _____    ______ ____
ROOT
ATOM      1  O   HOH     1       8.420  -9.612  33.861  0.00  0.00    +0.000 OA
ENDROOT
TORSDOF 0
REMARK  Name = ../refined-set-2016/3ivg/3ivg_pocket.pdb
REMARK  219 active torsions:
REMARK  status: ('A' for Active; 'I' for Inactive)
REMARK    1  A    between atoms: _1  and  _3
REMARK    2  A    between atoms: _3  and  _4
REMARK    3  A    between atoms: _3  and  _6
REMARK    4  A    between atoms: _6  and  _7
REMARK    5  A    between atoms: _10  and  _12
REMARK    6  A    between atoms: _12  and  _13
REMARK    7  A    between atoms: _12  and  _15
REMARK    8  A    between atoms: _19  and  _20
REMARK    9  A    between atoms: _25  and  _27
REMARK   10  A    between atoms: _27  and  _28
REMARK   11  A    between atoms: _27  and  _30
REMARK   12  A    between atoms: _30  and  _31
REMARK   13  A    between atoms: _34  and  _36
REMARK   14  A    between atoms: _36  and  _37
REMARK   15  A    between atoms: _36  and  _39
REMARK   16  A    between atoms: _39  and  _40
REMARK   17  A    between atoms: _40  and  _41
REMARK   18  A    between atoms: _43  and  _45
REMARK   19  A    between atoms: _45  and  _46
REMARK   20  A    between atoms: _48  and  _50
REMARK   21  A    between atoms: _50  and  _51
REMARK   22  A    between atoms: _54  and  _56
REMARK   23  A    between atoms: _56  and  _57
REMARK   24  A    between atoms: _56  and  _59
REMARK   25  A    between atoms: _59  and  _60
REMARK   26  A    between atoms: _63  and  _65
REMARK   27  A    between atoms: _65  and  _66
REMARK   28  A    between atoms: _65  and  _68
REMARK   29  A    between atoms: _68  and  _69
REMARK   30  A    between atoms: _74  and  _76
REMARK   31  A    between atoms: _76  and  _77
REMARK   32  A    between atoms: _76  and  _79
REMARK   33  A    between atoms: _79  and  _80
REMARK   34  A    between atoms: _80  and  _81
REMARK   35  A    between atoms: _84  and  _86
REMARK   36  A    between atoms: _86  and  _87
REMARK   37  A    between atoms: _89  and  _91
REMARK   38  A    between atoms: _91  and  _92
REMARK   39  A    between atoms: _91  and  _94
REMARK   40  A    between atoms: _94  and  _95
REMARK   41  A    between atoms: _100  and  _102
REMARK   42  A    between atoms: _102  and  _103
REMARK   43  A    between atoms: _102  and  _105
REMARK   44  A    between atoms: _105  and  _106
REMARK   45  A    between atoms: _109  and  _111
REMARK   46  A    between atoms: _111  and  _112
REMARK   47  A    between atoms: _115  and  _117
REMARK   48  A    between atoms: _117  and  _118
REMARK   49  A    between atoms: _117  and  _120
REMARK   50  A    between atoms: _120  and  _121
REMARK   51  A    between atoms: _124  and  _126
REMARK   52  A    between atoms: _126  and  _127
REMARK   53  A    between atoms: _126  and  _129
REMARK   54  A    between atoms: _132  and  _134
REMARK   55  A    between atoms: _134  and  _135
REMARK   56  A    between atoms: _138  and  _140
REMARK   57  A    between atoms: _140  and  _141
REMARK   58  A    between atoms: _140  and  _143
REMARK   59  A    between atoms: _146  and  _148
REMARK   60  A    between atoms: _148  and  _149
REMARK   61  A    between atoms: _148  and  _151
REMARK   62  A    between atoms: _151  and  _152
REMARK   63  A    between atoms: _154  and  _156
REMARK   64  A    between atoms: _156  and  _157
REMARK   65  A    between atoms: _156  and  _159
REMARK   66  A    between atoms: _159  and  _160
REMARK   67  A    between atoms: _163  and  _165
REMARK   68  A    between atoms: _165  and  _166
REMARK   69  A    between atoms: _165  and  _168
REMARK   70  A    between atoms: _168  and  _169
REMARK   71  A    between atoms: _175  and  _177
REMARK   72  A    between atoms: _177  and  _178
REMARK   73  A    between atoms: _177  and  _180
REMARK   74  A    between atoms: _183  and  _185
REMARK   75  A    between atoms: _185  and  _186
REMARK   76  A    between atoms: _185  and  _188
REMARK   77  A    between atoms: _188  and  _189
REMARK   78  A    between atoms: _194  and  _196
REMARK   79  A    between atoms: _196  and  _197
REMARK   80  A    between atoms: _196  and  _199
REMARK   81  A    between atoms: _199  and  _200
REMARK   82  A    between atoms: _200  and  _201
REMARK   83  A    between atoms: _206  and  _208
REMARK   84  A    between atoms: _208  and  _209
REMARK   85  A    between atoms: _208  and  _211
REMARK   86  A    between atoms: _211  and  _212
REMARK   87  A    between atoms: _212  and  _213
REMARK   88  A    between atoms: _215  and  _217
REMARK   89  A    between atoms: _217  and  _218
REMARK   90  A    between atoms: _217  and  _220
REMARK   91  A    between atoms: _220  and  _221
REMARK   92  A    between atoms: _226  and  _228
REMARK   93  A    between atoms: _228  and  _229
REMARK   94  A    between atoms: _228  and  _231
REMARK   95  A    between atoms: _231  and  _232
REMARK   96  A    between atoms: _238  and  _240
REMARK   97  A    between atoms: _240  and  _241
REMARK   98  A    between atoms: _243  and  _245
REMARK   99  A    between atoms: _245  and  _246
REMARK  100  A    between atoms: _245  and  _248
REMARK  101  A    between atoms: _251  and  _253
REMARK  102  A    between atoms: _253  and  _254
REMARK  103  A    between atoms: _253  and  _256
REMARK  104  A    between atoms: _256  and  _257
REMARK  105  A    between atoms: _260  and  _262
REMARK  106  A    between atoms: _262  and  _263
REMARK  107  A    between atoms: _262  and  _265
REMARK  108  A    between atoms: _265  and  _266
REMARK  109  A    between atoms: _269  and  _271
REMARK  110  A    between atoms: _271  and  _272
REMARK  111  A    between atoms: _271  and  _274
REMARK  112  A    between atoms: _277  and  _279
REMARK  113  A    between atoms: _279  and  _280
REMARK  114  A    between atoms: _279  and  _282
REMARK  115  A    between atoms: _285  and  _287
REMARK  116  A    between atoms: _287  and  _288
REMARK  117  A    between atoms: _287  and  _290
REMARK  118  A    between atoms: _290  and  _291
REMARK  119  A    between atoms: _294  and  _296
REMARK  120  A    between atoms: _296  and  _297
REMARK  121  A    between atoms: _296  and  _299
REMARK  122  A    between atoms: _299  and  _300
REMARK  123  A    between atoms: _303  and  _305
REMARK  124  A    between atoms: _305  and  _306
REMARK  125  A    between atoms: _305  and  _308
REMARK  126  A    between atoms: _308  and  _309
REMARK  127  A    between atoms: _315  and  _317
REMARK  128  A    between atoms: _317  and  _318
REMARK  129  A    between atoms: _317  and  _320
REMARK  130  A    between atoms: _320  and  _321
REMARK  131  A    between atoms: _327  and  _329
REMARK  132  A    between atoms: _329  and  _330
REMARK  133  A    between atoms: _332  and  _334
REMARK  134  A    between atoms: _334  and  _335
REMARK  135  A    between atoms: _334  and  _337
REMARK  136  A    between atoms: _337  and  _338
REMARK  137  A    between atoms: _338  and  _339
REMARK  138  A    between atoms: _342  and  _344
REMARK  139  A    between atoms: _344  and  _345
REMARK  140  A    between atoms: _344  and  _347
REMARK  141  A    between atoms: _347  and  _348
REMARK  142  A    between atoms: _348  and  _349
REMARK  143  A    between atoms: _349  and  _350
REMARK  144  A    between atoms: _350  and  _351
REMARK  145  A    between atoms: _355  and  _357
REMARK  146  A    between atoms: _357  and  _358
REMARK  147  A    between atoms: _357  and  _360
REMARK  148  A    between atoms: _360  and  _361
REMARK  149  A    between atoms: _364  and  _366
REMARK  150  A    between atoms: _366  and  _367
REMARK  151  A    between atoms: _366  and  _369
REMARK  152  A    between atoms: _369  and  _370
REMARK  153  A    between atoms: _370  and  _371
REMARK  154  A    between atoms: _376  and  _378
REMARK  155  A    between atoms: _378  and  _379
REMARK  156  A    between atoms: _378  and  _381
REMARK  157  A    between atoms: _381  and  _382
REMARK  158  A    between atoms: _385  and  _387
REMARK  159  A    between atoms: _387  and  _388
REMARK  160  A    between atoms: _390  and  _392
REMARK  161  A    between atoms: _392  and  _393
REMARK  162  A    between atoms: _392  and  _395
REMARK  163  A    between atoms: _399  and  _400
REMARK  164  A    between atoms: _405  and  _407
REMARK  165  A    between atoms: _407  and  _408
REMARK  166  A    between atoms: _407  and  _410
REMARK  167  A    between atoms: _410  and  _411
REMARK  168  A    between atoms: _414  and  _416
REMARK  169  A    between atoms: _416  and  _417
REMARK  170  A    between atoms: _416  and  _419
REMARK  171  A    between atoms: _422  and  _424
REMARK  172  A    between atoms: _424  and  _425
REMARK  173  A    between atoms: _424  and  _427
REMARK  174  A    between atoms: _427  and  _428
REMARK  175  A    between atoms: _428  and  _429
REMARK  176  A    between atoms: _429  and  _430
REMARK  177  A    between atoms: _439  and  _441
REMARK  178  A    between atoms: _441  and  _442
REMARK  179  A    between atoms: _441  and  _444
REMARK  180  A    between atoms: _444  and  _445
REMARK  181  A    between atoms: _448  and  _450
REMARK  182  A    between atoms: _450  and  _451
REMARK  183  A    between atoms: _454  and  _456
REMARK  184  A    between atoms: _456  and  _457
REMARK  185  A    between atoms: _456  and  _459
REMARK  186  A    between atoms: _459  and  _460
REMARK  187  A    between atoms: _460  and  _461
REMARK  188  A    between atoms: _463  and  _465
REMARK  189  A    between atoms: _465  and  _466
REMARK  190  A    between atoms: _465  and  _468
REMARK  191  A    between atoms: _468  and  _469
REMARK  192  A    between atoms: _471  and  _473
REMARK  193  A    between atoms: _473  and  _474
REMARK  194  A    between atoms: _473  and  _476
REMARK  195  A    between atoms: _476  and  _477
REMARK  196  A    between atoms: _479  and  _481
REMARK  197  A    between atoms: _481  and  _482
REMARK  198  A    between atoms: _481  and  _484
REMARK  199  A    between atoms: _484  and  _485
REMARK  200  A    between atoms: _485  and  _486
REMARK  201  A    between atoms: _486  and  _487
REMARK  202  A    between atoms: _496  and  _498
REMARK  203  A    between atoms: _498  and  _499
REMARK  204  A    between atoms: _498  and  _501
REMARK  205  A    between atoms: _501  and  _502
REMARK  206  A    between atoms: _507  and  _509
REMARK  207  A    between atoms: _509  and  _510
REMARK  208  A    between atoms: _509  and  _512
REMARK  209  A    between atoms: _512  and  _513
REMARK  210  A    between atoms: _513  and  _514
REMARK  211  A    between atoms: _514  and  _515
REMARK  212  A    between atoms: _524  and  _526
REMARK  213  A    between atoms: _526  and  _527
REMARK  214  A    between atoms: _526  and  _529
REMARK  215  A    between atoms: _529  and  _530
REMARK  216  A    between atoms: _533  and  _535
REMARK  217  A    between atoms: _535  and  _536
REMARK  218  A    between atoms: _535  and  _538
REMARK  219  A    between atoms: _538  and  _539
REMARK                            x       y       z     vdW  Elec       q    Type
REMARK                         _______ _______ _______ _____ _____    ______ ____
ROOT
ATOM      1  O   HOH     1      -6.828  -2.385  42.795  0.00  0.00    +0.000 OA
ENDROOT
TORSDOF 0
REMARK  Name = ../refined-set-2016/3ivg/3ivg_pocket.pdb
REMARK  219 active torsions:
REMARK  status: ('A' for Active; 'I' for Inactive)
REMARK    1  A    between atoms: _1  and  _3
REMARK    2  A    between atoms: _3  and  _4
REMARK    3  A    between atoms: _3  and  _6
REMARK    4  A    between atoms: _6  and  _7
REMARK    5  A    between atoms: _10  and  _12
REMARK    6  A    between atoms: _12  and  _13
REMARK    7  A    between atoms: _12  and  _15
REMARK    8  A    between atoms: _19  and  _20
REMARK    9  A    between atoms: _25  and  _27
REMARK   10  A    between atoms: _27  and  _28
REMARK   11  A    between atoms: _27  and  _30
REMARK   12  A    between atoms: _30  and  _31
REMARK   13  A    between atoms: _34  and  _36
REMARK   14  A    between atoms: _36  and  _37
REMARK   15  A    between atoms: _36  and  _39
REMARK   16  A    between atoms: _39  and  _40
REMARK   17  A    between atoms: _40  and  _41
REMARK   18  A    between atoms: _43  and  _45
REMARK   19  A    between atoms: _45  and  _46
REMARK   20  A    between atoms: _48  and  _50
REMARK   21  A    between atoms: _50  and  _51
REMARK   22  A    between atoms: _54  and  _56
REMARK   23  A    between atoms: _56  and  _57
REMARK   24  A    between atoms: _56  and  _59
REMARK   25  A    between atoms: _59  and  _60
REMARK   26  A    between atoms: _63  and  _65
REMARK   27  A    between atoms: _65  and  _66
REMARK   28  A    between atoms: _65  and  _68
REMARK   29  A    between atoms: _68  and  _69
REMARK   30  A    between atoms: _74  and  _76
REMARK   31  A    between atoms: _76  and  _77
REMARK   32  A    between atoms: _76  and  _79
REMARK   33  A    between atoms: _79  and  _80
REMARK   34  A    between atoms: _80  and  _81
REMARK   35  A    between atoms: _84  and  _86
REMARK   36  A    between atoms: _86  and  _87
REMARK   37  A    between atoms: _89  and  _91
REMARK   38  A    between atoms: _91  and  _92
REMARK   39  A    between atoms: _91  and  _94
REMARK   40  A    between atoms: _94  and  _95
REMARK   41  A    between atoms: _100  and  _102
REMARK   42  A    between atoms: _102  and  _103
REMARK   43  A    between atoms: _102  and  _105
REMARK   44  A    between atoms: _105  and  _106
REMARK   45  A    between atoms: _109  and  _111
REMARK   46  A    between atoms: _111  and  _112
REMARK   47  A    between atoms: _115  and  _117
REMARK   48  A    between atoms: _117  and  _118
REMARK   49  A    between atoms: _117  and  _120
REMARK   50  A    between atoms: _120  and  _121
REMARK   51  A    between atoms: _124  and  _126
REMARK   52  A    between atoms: _126  and  _127
REMARK   53  A    between atoms: _126  and  _129
REMARK   54  A    between atoms: _132  and  _134
REMARK   55  A    between atoms: _134  and  _135
REMARK   56  A    between atoms: _138  and  _140
REMARK   57  A    between atoms: _140  and  _141
REMARK   58  A    between atoms: _140  and  _143
REMARK   59  A    between atoms: _146  and  _148
REMARK   60  A    between atoms: _148  and  _149
REMARK   61  A    between atoms: _148  and  _151
REMARK   62  A    between atoms: _151  and  _152
REMARK   63  A    between atoms: _154  and  _156
REMARK   64  A    between atoms: _156  and  _157
REMARK   65  A    between atoms: _156  and  _159
REMARK   66  A    between atoms: _159  and  _160
REMARK   67  A    between atoms: _163  and  _165
REMARK   68  A    between atoms: _165  and  _166
REMARK   69  A    between atoms: _165  and  _168
REMARK   70  A    between atoms: _168  and  _169
REMARK   71  A    between atoms: _175  and  _177
REMARK   72  A    between atoms: _177  and  _178
REMARK   73  A    between atoms: _177  and  _180
REMARK   74  A    between atoms: _183  and  _185
REMARK   75  A    between atoms: _185  and  _186
REMARK   76  A    between atoms: _185  and  _188
REMARK   77  A    between atoms: _188  and  _189
REMARK   78  A    between atoms: _194  and  _196
REMARK   79  A    between atoms: _196  and  _197
REMARK   80  A    between atoms: _196  and  _199
REMARK   81  A    between atoms: _199  and  _200
REMARK   82  A    between atoms: _200  and  _201
REMARK   83  A    between atoms: _206  and  _208
REMARK   84  A    between atoms: _208  and  _209
REMARK   85  A    between atoms: _208  and  _211
REMARK   86  A    between atoms: _211  and  _212
REMARK   87  A    between atoms: _212  and  _213
REMARK   88  A    between atoms: _215  and  _217
REMARK   89  A    between atoms: _217  and  _218
REMARK   90  A    between atoms: _217  and  _220
REMARK   91  A    between atoms: _220  and  _221
REMARK   92  A    between atoms: _226  and  _228
REMARK   93  A    between atoms: _228  and  _229
REMARK   94  A    between atoms: _228  and  _231
REMARK   95  A    between atoms: _231  and  _232
REMARK   96  A    between atoms: _238  and  _240
REMARK   97  A    between atoms: _240  and  _241
REMARK   98  A    between atoms: _243  and  _245
REMARK   99  A    between atoms: _245  and  _246
REMARK  100  A    between atoms: _245  and  _248
REMARK  101  A    between atoms: _251  and  _253
REMARK  102  A    between atoms: _253  and  _254
REMARK  103  A    between atoms: _253  and  _256
REMARK  104  A    between atoms: _256  and  _257
REMARK  105  A    between atoms: _260  and  _262
REMARK  106  A    between atoms: _262  and  _263
REMARK  107  A    between atoms: _262  and  _265
REMARK  108  A    between atoms: _265  and  _266
REMARK  109  A    between atoms: _269  and  _271
REMARK  110  A    between atoms: _271  and  _272
REMARK  111  A    between atoms: _271  and  _274
REMARK  112  A    between atoms: _277  and  _279
REMARK  113  A    between atoms: _279  and  _280
REMARK  114  A    between atoms: _279  and  _282
REMARK  115  A    between atoms: _285  and  _287
REMARK  116  A    between atoms: _287  and  _288
REMARK  117  A    between atoms: _287  and  _290
REMARK  118  A    between atoms: _290  and  _291
REMARK  119  A    between atoms: _294  and  _296
REMARK  120  A    between atoms: _296  and  _297
REMARK  121  A    between atoms: _296  and  _299
REMARK  122  A    between atoms: _299  and  _300
REMARK  123  A    between atoms: _303  and  _305
REMARK  124  A    between atoms: _305  and  _306
REMARK  125  A    between atoms: _305  and  _308
REMARK  126  A    between atoms: _308  and  _309
REMARK  127  A    between atoms: _315  and  _317
REMARK  128  A    between atoms: _317  and  _318
REMARK  129  A    between atoms: _317  and  _320
REMARK  130  A    between atoms: _320  and  _321
REMARK  131  A    between atoms: _327  and  _329
REMARK  132  A    between atoms: _329  and  _330
REMARK  133  A    between atoms: _332  and  _334
REMARK  134  A    between atoms: _334  and  _335
REMARK  135  A    between atoms: _334  and  _337
REMARK  136  A    between atoms: _337  and  _338
REMARK  137  A    between atoms: _338  and  _339
REMARK  138  A    between atoms: _342  and  _344
REMARK  139  A    between atoms: _344  and  _345
REMARK  140  A    between atoms: _344  and  _347
REMARK  141  A    between atoms: _347  and  _348
REMARK  142  A    between atoms: _348  and  _349
REMARK  143  A    between atoms: _349  and  _350
REMARK  144  A    between atoms: _350  and  _351
REMARK  145  A    between atoms: _355  and  _357
REMARK  146  A    between atoms: _357  and  _358
REMARK  147  A    between atoms: _357  and  _360
REMARK  148  A    between atoms: _360  and  _361
REMARK  149  A    between atoms: _364  and  _366
REMARK  150  A    between atoms: _366  and  _367
REMARK  151  A    between atoms: _366  and  _369
REMARK  152  A    between atoms: _369  and  _370
REMARK  153  A    between atoms: _370  and  _371
REMARK  154  A    between atoms: _376  and  _378
REMARK  155  A    between atoms: _378  and  _379
REMARK  156  A    between atoms: _378  and  _381
REMARK  157  A    between atoms: _381  and  _382
REMARK  158  A    between atoms: _385  and  _387
REMARK  159  A    between atoms: _387  and  _388
REMARK  160  A    between atoms: _390  and  _392
REMARK  161  A    between atoms: _392  and  _393
REMARK  162  A    between atoms: _392  and  _395
REMARK  163  A    between atoms: _399  and  _400
REMARK  164  A    between atoms: _405  and  _407
REMARK  165  A    between atoms: _407  and  _408
REMARK  166  A    between atoms: _407  and  _410
REMARK  167  A    between atoms: _410  and  _411
REMARK  168  A    between atoms: _414  and  _416
REMARK  169  A    between atoms: _416  and  _417
REMARK  170  A    between atoms: _416  and  _419
REMARK  171  A    between atoms: _422  and  _424
REMARK  172  A    between atoms: _424  and  _425
REMARK  173  A    between atoms: _424  and  _427
REMARK  174  A    between atoms: _427  and  _428
REMARK  175  A    between atoms: _428  and  _429
REMARK  176  A    between atoms: _429  and  _430
REMARK  177  A    between atoms: _439  and  _441
REMARK  178  A    between atoms: _441  and  _442
REMARK  179  A    between atoms: _441  and  _444
REMARK  180  A    between atoms: _444  and  _445
REMARK  181  A    between atoms: _448  and  _450
REMARK  182  A    between atoms: _450  and  _451
REMARK  183  A    between atoms: _454  and  _456
REMARK  184  A    between atoms: _456  and  _457
REMARK  185  A    between atoms: _456  and  _459
REMARK  186  A    between atoms: _459  and  _460
REMARK  187  A    between atoms: _460  and  _461
REMARK  188  A    between atoms: _463  and  _465
REMARK  189  A    between atoms: _465  and  _466
REMARK  190  A    between atoms: _465  and  _468
REMARK  191  A    between atoms: _468  and  _469
REMARK  192  A    between atoms: _471  and  _473
REMARK  193  A    between atoms: _473  and  _474
REMARK  194  A    between atoms: _473  and  _476
REMARK  195  A    between atoms: _476  and  _477
REMARK  196  A    between atoms: _479  and  _481
REMARK  197  A    between atoms: _481  and  _482
REMARK  198  A    between atoms: _481  and  _484
REMARK  199  A    between atoms: _484  and  _485
REMARK  200  A    between atoms: _485  and  _486
REMARK  201  A    between atoms: _486  and  _487
REMARK  202  A    between atoms: _496  and  _498
REMARK  203  A    between atoms: _498  and  _499
REMARK  204  A    between atoms: _498  and  _501
REMARK  205  A    between atoms: _501  and  _502
REMARK  206  A    between atoms: _507  and  _509
REMARK  207  A    between atoms: _509  and  _510
REMARK  208  A    between atoms: _509  and  _512
REMARK  209  A    between atoms: _512  and  _513
REMARK  210  A    between atoms: _513  and  _514
REMARK  211  A    between atoms: _514  and  _515
REMARK  212  A    between atoms: _524  and  _526
REMARK  213  A    between atoms: _526  and  _527
REMARK  214  A    between atoms: _526  and  _529
REMARK  215  A    between atoms: _529  and  _530
REMARK  216  A    between atoms: _533  and  _535
REMARK  217  A    between atoms: _535  and  _536
REMARK  218  A    between atoms: _535  and  _538
REMARK  219  A    between atoms: _538  and  _539
REMARK                            x       y       z     vdW  Elec       q    Type
REMARK                         _______ _______ _______ _____ _____    ______ ____
ROOT
ATOM      1  O   HOH     1       6.435 -13.944  43.447  0.00  0.00    +0.000 OA
ENDROOT
TORSDOF 0
REMARK  Name = ../refined-set-2016/3ivg/3ivg_pocket.pdb
REMARK  219 active torsions:
REMARK  status: ('A' for Active; 'I' for Inactive)
REMARK    1  A    between atoms: _1  and  _3
REMARK    2  A    between atoms: _3  and  _4
REMARK    3  A    between atoms: _3  and  _6
REMARK    4  A    between atoms: _6  and  _7
REMARK    5  A    between atoms: _10  and  _12
REMARK    6  A    between atoms: _12  and  _13
REMARK    7  A    between atoms: _12  and  _15
REMARK    8  A    between atoms: _19  and  _20
REMARK    9  A    between atoms: _25  and  _27
REMARK   10  A    between atoms: _27  and  _28
REMARK   11  A    between atoms: _27  and  _30
REMARK   12  A    between atoms: _30  and  _31
REMARK   13  A    between atoms: _34  and  _36
REMARK   14  A    between atoms: _36  and  _37
REMARK   15  A    between atoms: _36  and  _39
REMARK   16  A    between atoms: _39  and  _40
REMARK   17  A    between atoms: _40  and  _41
REMARK   18  A    between atoms: _43  and  _45
REMARK   19  A    between atoms: _45  and  _46
REMARK   20  A    between atoms: _48  and  _50
REMARK   21  A    between atoms: _50  and  _51
REMARK   22  A    between atoms: _54  and  _56
REMARK   23  A    between atoms: _56  and  _57
REMARK   24  A    between atoms: _56  and  _59
REMARK   25  A    between atoms: _59  and  _60
REMARK   26  A    between atoms: _63  and  _65
REMARK   27  A    between atoms: _65  and  _66
REMARK   28  A    between atoms: _65  and  _68
REMARK   29  A    between atoms: _68  and  _69
REMARK   30  A    between atoms: _74  and  _76
REMARK   31  A    between atoms: _76  and  _77
REMARK   32  A    between atoms: _76  and  _79
REMARK   33  A    between atoms: _79  and  _80
REMARK   34  A    between atoms: _80  and  _81
REMARK   35  A    between atoms: _84  and  _86
REMARK   36  A    between atoms: _86  and  _87
REMARK   37  A    between atoms: _89  and  _91
REMARK   38  A    between atoms: _91  and  _92
REMARK   39  A    between atoms: _91  and  _94
REMARK   40  A    between atoms: _94  and  _95
REMARK   41  A    between atoms: _100  and  _102
REMARK   42  A    between atoms: _102  and  _103
REMARK   43  A    between atoms: _102  and  _105
REMARK   44  A    between atoms: _105  and  _106
REMARK   45  A    between atoms: _109  and  _111
REMARK   46  A    between atoms: _111  and  _112
REMARK   47  A    between atoms: _115  and  _117
REMARK   48  A    between atoms: _117  and  _118
REMARK   49  A    between atoms: _117  and  _120
REMARK   50  A    between atoms: _120  and  _121
REMARK   51  A    between atoms: _124  and  _126
REMARK   52  A    between atoms: _126  and  _127
REMARK   53  A    between atoms: _126  and  _129
REMARK   54  A    between atoms: _132  and  _134
REMARK   55  A    between atoms: _134  and  _135
REMARK   56  A    between atoms: _138  and  _140
REMARK   57  A    between atoms: _140  and  _141
REMARK   58  A    between atoms: _140  and  _143
REMARK   59  A    between atoms: _146  and  _148
REMARK   60  A    between atoms: _148  and  _149
REMARK   61  A    between atoms: _148  and  _151
REMARK   62  A    between atoms: _151  and  _152
REMARK   63  A    between atoms: _154  and  _156
REMARK   64  A    between atoms: _156  and  _157
REMARK   65  A    between atoms: _156  and  _159
REMARK   66  A    between atoms: _159  and  _160
REMARK   67  A    between atoms: _163  and  _165
REMARK   68  A    between atoms: _165  and  _166
REMARK   69  A    between atoms: _165  and  _168
REMARK   70  A    between atoms: _168  and  _169
REMARK   71  A    between atoms: _175  and  _177
REMARK   72  A    between atoms: _177  and  _178
REMARK   73  A    between atoms: _177  and  _180
REMARK   74  A    between atoms: _183  and  _185
REMARK   75  A    between atoms: _185  and  _186
REMARK   76  A    between atoms: _185  and  _188
REMARK   77  A    between atoms: _188  and  _189
REMARK   78  A    between atoms: _194  and  _196
REMARK   79  A    between atoms: _196  and  _197
REMARK   80  A    between atoms: _196  and  _199
REMARK   81  A    between atoms: _199  and  _200
REMARK   82  A    between atoms: _200  and  _201
REMARK   83  A    between atoms: _206  and  _208
REMARK   84  A    between atoms: _208  and  _209
REMARK   85  A    between atoms: _208  and  _211
REMARK   86  A    between atoms: _211  and  _212
REMARK   87  A    between atoms: _212  and  _213
REMARK   88  A    between atoms: _215  and  _217
REMARK   89  A    between atoms: _217  and  _218
REMARK   90  A    between atoms: _217  and  _220
REMARK   91  A    between atoms: _220  and  _221
REMARK   92  A    between atoms: _226  and  _228
REMARK   93  A    between atoms: _228  and  _229
REMARK   94  A    between atoms: _228  and  _231
REMARK   95  A    between atoms: _231  and  _232
REMARK   96  A    between atoms: _238  and  _240
REMARK   97  A    between atoms: _240  and  _241
REMARK   98  A    between atoms: _243  and  _245
REMARK   99  A    between atoms: _245  and  _246
REMARK  100  A    between atoms: _245  and  _248
REMARK  101  A    between atoms: _251  and  _253
REMARK  102  A    between atoms: _253  and  _254
REMARK  103  A    between atoms: _253  and  _256
REMARK  104  A    between atoms: _256  and  _257
REMARK  105  A    between atoms: _260  and  _262
REMARK  106  A    between atoms: _262  and  _263
REMARK  107  A    between atoms: _262  and  _265
REMARK  108  A    between atoms: _265  and  _266
REMARK  109  A    between atoms: _269  and  _271
REMARK  110  A    between atoms: _271  and  _272
REMARK  111  A    between atoms: _271  and  _274
REMARK  112  A    between atoms: _277  and  _279
REMARK  113  A    between atoms: _279  and  _280
REMARK  114  A    between atoms: _279  and  _282
REMARK  115  A    between atoms: _285  and  _287
REMARK  116  A    between atoms: _287  and  _288
REMARK  117  A    between atoms: _287  and  _290
REMARK  118  A    between atoms: _290  and  _291
REMARK  119  A    between atoms: _294  and  _296
REMARK  120  A    between atoms: _296  and  _297
REMARK  121  A    between atoms: _296  and  _299
REMARK  122  A    between atoms: _299  and  _300
REMARK  123  A    between atoms: _303  and  _305
REMARK  124  A    between atoms: _305  and  _306
REMARK  125  A    between atoms: _305  and  _308
REMARK  126  A    between atoms: _308  and  _309
REMARK  127  A    between atoms: _315  and  _317
REMARK  128  A    between atoms: _317  and  _318
REMARK  129  A    between atoms: _317  and  _320
REMARK  130  A    between atoms: _320  and  _321
REMARK  131  A    between atoms: _327  and  _329
REMARK  132  A    between atoms: _329  and  _330
REMARK  133  A    between atoms: _332  and  _334
REMARK  134  A    between atoms: _334  and  _335
REMARK  135  A    between atoms: _334  and  _337
REMARK  136  A    between atoms: _337  and  _338
REMARK  137  A    between atoms: _338  and  _339
REMARK  138  A    between atoms: _342  and  _344
REMARK  139  A    between atoms: _344  and  _345
REMARK  140  A    between atoms: _344  and  _347
REMARK  141  A    between atoms: _347  and  _348
REMARK  142  A    between atoms: _348  and  _349
REMARK  143  A    between atoms: _349  and  _350
REMARK  144  A    between atoms: _350  and  _351
REMARK  145  A    between atoms: _355  and  _357
REMARK  146  A    between atoms: _357  and  _358
REMARK  147  A    between atoms: _357  and  _360
REMARK  148  A    between atoms: _360  and  _361
REMARK  149  A    between atoms: _364  and  _366
REMARK  150  A    between atoms: _366  and  _367
REMARK  151  A    between atoms: _366  and  _369
REMARK  152  A    between atoms: _369  and  _370
REMARK  153  A    between atoms: _370  and  _371
REMARK  154  A    between atoms: _376  and  _378
REMARK  155  A    between atoms: _378  and  _379
REMARK  156  A    between atoms: _378  and  _381
REMARK  157  A    between atoms: _381  and  _382
REMARK  158  A    between atoms: _385  and  _387
REMARK  159  A    between atoms: _387  and  _388
REMARK  160  A    between atoms: _390  and  _392
REMARK  161  A    between atoms: _392  and  _393
REMARK  162  A    between atoms: _392  and  _395
REMARK  163  A    between atoms: _399  and  _400
REMARK  164  A    between atoms: _405  and  _407
REMARK  165  A    between atoms: _407  and  _408
REMARK  166  A    between atoms: _407  and  _410
REMARK  167  A    between atoms: _410  and  _411
REMARK  168  A    between atoms: _414  and  _416
REMARK  169  A    between atoms: _416  and  _417
REMARK  170  A    between atoms: _416  and  _419
REMARK  171  A    between atoms: _422  and  _424
REMARK  172  A    between atoms: _424  and  _425
REMARK  173  A    between atoms: _424  and  _427
REMARK  174  A    between atoms: _427  and  _428
REMARK  175  A    between atoms: _428  and  _429
REMARK  176  A    between atoms: _429  and  _430
REMARK  177  A    between atoms: _439  and  _441
REMARK  178  A    between atoms: _441  and  _442
REMARK  179  A    between atoms: _441  and  _444
REMARK  180  A    between atoms: _444  and  _445
REMARK  181  A    between atoms: _448  and  _450
REMARK  182  A    between atoms: _450  and  _451
REMARK  183  A    between atoms: _454  and  _456
REMARK  184  A    between atoms: _456  and  _457
REMARK  185  A    between atoms: _456  and  _459
REMARK  186  A    between atoms: _459  and  _460
REMARK  187  A    between atoms: _460  and  _461
REMARK  188  A    between atoms: _463  and  _465
REMARK  189  A    between atoms: _465  and  _466
REMARK  190  A    between atoms: _465  and  _468
REMARK  191  A    between atoms: _468  and  _469
REMARK  192  A    between atoms: _471  and  _473
REMARK  193  A    between atoms: _473  and  _474
REMARK  194  A    between atoms: _473  and  _476
REMARK  195  A    between atoms: _476  and  _477
REMARK  196  A    between atoms: _479  and  _481
REMARK  197  A    between atoms: _481  and  _482
REMARK  198  A    between atoms: _481  and  _484
REMARK  199  A    between atoms: _484  and  _485
REMARK  200  A    between atoms: _485  and  _486
REMARK  201  A    between atoms: _486  and  _487
REMARK  202  A    between atoms: _496  and  _498
REMARK  203  A    between atoms: _498  and  _499
REMARK  204  A    between atoms: _498  and  _501
REMARK  205  A    between atoms: _501  and  _502
REMARK  206  A    between atoms: _507  and  _509
REMARK  207  A    between atoms: _509  and  _510
REMARK  208  A    between atoms: _509  and  _512
REMARK  209  A    between atoms: _512  and  _513
REMARK  210  A    between atoms: _513  and  _514
REMARK  211  A    between atoms: _514  and  _515
REMARK  212  A    between atoms: _524  and  _526
REMARK  213  A    between atoms: _526  and  _527
REMARK  214  A    between atoms: _526  and  _529
REMARK  215  A    between atoms: _529  and  _530
REMARK  216  A    between atoms: _533  and  _535
REMARK  217  A    between atoms: _535  and  _536
REMARK  218  A    between atoms: _535  and  _538
REMARK  219  A    between atoms: _538  and  _539
REMARK                            x       y       z     vdW  Elec       q    Type
REMARK                         _______ _______ _______ _____ _____    ______ ____
ROOT
ATOM      1  O   HOH     1      -5.274  -4.134  43.998  0.00  0.00    +0.000 OA
ENDROOT
TORSDOF 0
REMARK  Name = ../refined-set-2016/3ivg/3ivg_pocket.pdb
REMARK  219 active torsions:
REMARK  status: ('A' for Active; 'I' for Inactive)
REMARK    1  A    between atoms: _1  and  _3
REMARK    2  A    between atoms: _3  and  _4
REMARK    3  A    between atoms: _3  and  _6
REMARK    4  A    between atoms: _6  and  _7
REMARK    5  A    between atoms: _10  and  _12
REMARK    6  A    between atoms: _12  and  _13
REMARK    7  A    between atoms: _12  and  _15
REMARK    8  A    between atoms: _19  and  _20
REMARK    9  A    between atoms: _25  and  _27
REMARK   10  A    between atoms: _27  and  _28
REMARK   11  A    between atoms: _27  and  _30
REMARK   12  A    between atoms: _30  and  _31
REMARK   13  A    between atoms: _34  and  _36
REMARK   14  A    between atoms: _36  and  _37
REMARK   15  A    between atoms: _36  and  _39
REMARK   16  A    between atoms: _39  and  _40
REMARK   17  A    between atoms: _40  and  _41
REMARK   18  A    between atoms: _43  and  _45
REMARK   19  A    between atoms: _45  and  _46
REMARK   20  A    between atoms: _48  and  _50
REMARK   21  A    between atoms: _50  and  _51
REMARK   22  A    between atoms: _54  and  _56
REMARK   23  A    between atoms: _56  and  _57
REMARK   24  A    between atoms: _56  and  _59
REMARK   25  A    between atoms: _59  and  _60
REMARK   26  A    between atoms: _63  and  _65
REMARK   27  A    between atoms: _65  and  _66
REMARK   28  A    between atoms: _65  and  _68
REMARK   29  A    between atoms: _68  and  _69
REMARK   30  A    between atoms: _74  and  _76
REMARK   31  A    between atoms: _76  and  _77
REMARK   32  A    between atoms: _76  and  _79
REMARK   33  A    between atoms: _79  and  _80
REMARK   34  A    between atoms: _80  and  _81
REMARK   35  A    between atoms: _84  and  _86
REMARK   36  A    between atoms: _86  and  _87
REMARK   37  A    between atoms: _89  and  _91
REMARK   38  A    between atoms: _91  and  _92
REMARK   39  A    between atoms: _91  and  _94
REMARK   40  A    between atoms: _94  and  _95
REMARK   41  A    between atoms: _100  and  _102
REMARK   42  A    between atoms: _102  and  _103
REMARK   43  A    between atoms: _102  and  _105
REMARK   44  A    between atoms: _105  and  _106
REMARK   45  A    between atoms: _109  and  _111
REMARK   46  A    between atoms: _111  and  _112
REMARK   47  A    between atoms: _115  and  _117
REMARK   48  A    between atoms: _117  and  _118
REMARK   49  A    between atoms: _117  and  _120
REMARK   50  A    between atoms: _120  and  _121
REMARK   51  A    between atoms: _124  and  _126
REMARK   52  A    between atoms: _126  and  _127
REMARK   53  A    between atoms: _126  and  _129
REMARK   54  A    between atoms: _132  and  _134
REMARK   55  A    between atoms: _134  and  _135
REMARK   56  A    between atoms: _138  and  _140
REMARK   57  A    between atoms: _140  and  _141
REMARK   58  A    between atoms: _140  and  _143
REMARK   59  A    between atoms: _146  and  _148
REMARK   60  A    between atoms: _148  and  _149
REMARK   61  A    between atoms: _148  and  _151
REMARK   62  A    between atoms: _151  and  _152
REMARK   63  A    between atoms: _154  and  _156
REMARK   64  A    between atoms: _156  and  _157
REMARK   65  A    between atoms: _156  and  _159
REMARK   66  A    between atoms: _159  and  _160
REMARK   67  A    between atoms: _163  and  _165
REMARK   68  A    between atoms: _165  and  _166
REMARK   69  A    between atoms: _165  and  _168
REMARK   70  A    between atoms: _168  and  _169
REMARK   71  A    between atoms: _175  and  _177
REMARK   72  A    between atoms: _177  and  _178
REMARK   73  A    between atoms: _177  and  _180
REMARK   74  A    between atoms: _183  and  _185
REMARK   75  A    between atoms: _185  and  _186
REMARK   76  A    between atoms: _185  and  _188
REMARK   77  A    between atoms: _188  and  _189
REMARK   78  A    between atoms: _194  and  _196
REMARK   79  A    between atoms: _196  and  _197
REMARK   80  A    between atoms: _196  and  _199
REMARK   81  A    between atoms: _199  and  _200
REMARK   82  A    between atoms: _200  and  _201
REMARK   83  A    between atoms: _206  and  _208
REMARK   84  A    between atoms: _208  and  _209
REMARK   85  A    between atoms: _208  and  _211
REMARK   86  A    between atoms: _211  and  _212
REMARK   87  A    between atoms: _212  and  _213
REMARK   88  A    between atoms: _215  and  _217
REMARK   89  A    between atoms: _217  and  _218
REMARK   90  A    between atoms: _217  and  _220
REMARK   91  A    between atoms: _220  and  _221
REMARK   92  A    between atoms: _226  and  _228
REMARK   93  A    between atoms: _228  and  _229
REMARK   94  A    between atoms: _228  and  _231
REMARK   95  A    between atoms: _231  and  _232
REMARK   96  A    between atoms: _238  and  _240
REMARK   97  A    between atoms: _240  and  _241
REMARK   98  A    between atoms: _243  and  _245
REMARK   99  A    between atoms: _245  and  _246
REMARK  100  A    between atoms: _245  and  _248
REMARK  101  A    between atoms: _251  and  _253
REMARK  102  A    between atoms: _253  and  _254
REMARK  103  A    between atoms: _253  and  _256
REMARK  104  A    between atoms: _256  and  _257
REMARK  105  A    between atoms: _260  and  _262
REMARK  106  A    between atoms: _262  and  _263
REMARK  107  A    between atoms: _262  and  _265
REMARK  108  A    between atoms: _265  and  _266
REMARK  109  A    between atoms: _269  and  _271
REMARK  110  A    between atoms: _271  and  _272
REMARK  111  A    between atoms: _271  and  _274
REMARK  112  A    between atoms: _277  and  _279
REMARK  113  A    between atoms: _279  and  _280
REMARK  114  A    between atoms: _279  and  _282
REMARK  115  A    between atoms: _285  and  _287
REMARK  116  A    between atoms: _287  and  _288
REMARK  117  A    between atoms: _287  and  _290
REMARK  118  A    between atoms: _290  and  _291
REMARK  119  A    between atoms: _294  and  _296
REMARK  120  A    between atoms: _296  and  _297
REMARK  121  A    between atoms: _296  and  _299
REMARK  122  A    between atoms: _299  and  _300
REMARK  123  A    between atoms: _303  and  _305
REMARK  124  A    between atoms: _305  and  _306
REMARK  125  A    between atoms: _305  and  _308
REMARK  126  A    between atoms: _308  and  _309
REMARK  127  A    between atoms: _315  and  _317
REMARK  128  A    between atoms: _317  and  _318
REMARK  129  A    between atoms: _317  and  _320
REMARK  130  A    between atoms: _320  and  _321
REMARK  131  A    between atoms: _327  and  _329
REMARK  132  A    between atoms: _329  and  _330
REMARK  133  A    between atoms: _332  and  _334
REMARK  134  A    between atoms: _334  and  _335
REMARK  135  A    between atoms: _334  and  _337
REMARK  136  A    between atoms: _337  and  _338
REMARK  137  A    between atoms: _338  and  _339
REMARK  138  A    between atoms: _342  and  _344
REMARK  139  A    between atoms: _344  and  _345
REMARK  140  A    between atoms: _344  and  _347
REMARK  141  A    between atoms: _347  and  _348
REMARK  142  A    between atoms: _348  and  _349
REMARK  143  A    between atoms: _349  and  _350
REMARK  144  A    between atoms: _350  and  _351
REMARK  145  A    between atoms: _355  and  _357
REMARK  146  A    between atoms: _357  and  _358
REMARK  147  A    between atoms: _357  and  _360
REMARK  148  A    between atoms: _360  and  _361
REMARK  149  A    between atoms: _364  and  _366
REMARK  150  A    between atoms: _366  and  _367
REMARK  151  A    between atoms: _366  and  _369
REMARK  152  A    between atoms: _369  and  _370
REMARK  153  A    between atoms: _370  and  _371
REMARK  154  A    between atoms: _376  and  _378
REMARK  155  A    between atoms: _378  and  _379
REMARK  156  A    between atoms: _378  and  _381
REMARK  157  A    between atoms: _381  and  _382
REMARK  158  A    between atoms: _385  and  _387
REMARK  159  A    between atoms: _387  and  _388
REMARK  160  A    between atoms: _390  and  _392
REMARK  161  A    between atoms: _392  and  _393
REMARK  162  A    between atoms: _392  and  _395
REMARK  163  A    between atoms: _399  and  _400
REMARK  164  A    between atoms: _405  and  _407
REMARK  165  A    between atoms: _407  and  _408
REMARK  166  A    between atoms: _407  and  _410
REMARK  167  A    between atoms: _410  and  _411
REMARK  168  A    between atoms: _414  and  _416
REMARK  169  A    between atoms: _416  and  _417
REMARK  170  A    between atoms: _416  and  _419
REMARK  171  A    between atoms: _422  and  _424
REMARK  172  A    between atoms: _424  and  _425
REMARK  173  A    between atoms: _424  and  _427
REMARK  174  A    between atoms: _427  and  _428
REMARK  175  A    between atoms: _428  and  _429
REMARK  176  A    between atoms: _429  and  _430
REMARK  177  A    between atoms: _439  and  _441
REMARK  178  A    between atoms: _441  and  _442
REMARK  179  A    between atoms: _441  and  _444
REMARK  180  A    between atoms: _444  and  _445
REMARK  181  A    between atoms: _448  and  _450
REMARK  182  A    between atoms: _450  and  _451
REMARK  183  A    between atoms: _454  and  _456
REMARK  184  A    between atoms: _456  and  _457
REMARK  185  A    between atoms: _456  and  _459
REMARK  186  A    between atoms: _459  and  _460
REMARK  187  A    between atoms: _460  and  _461
REMARK  188  A    between atoms: _463  and  _465
REMARK  189  A    between atoms: _465  and  _466
REMARK  190  A    between atoms: _465  and  _468
REMARK  191  A    between atoms: _468  and  _469
REMARK  192  A    between atoms: _471  and  _473
REMARK  193  A    between atoms: _473  and  _474
REMARK  194  A    between atoms: _473  and  _476
REMARK  195  A    between atoms: _476  and  _477
REMARK  196  A    between atoms: _479  and  _481
REMARK  197  A    between atoms: _481  and  _482
REMARK  198  A    between atoms: _481  and  _484
REMARK  199  A    between atoms: _484  and  _485
REMARK  200  A    between atoms: _485  and  _486
REMARK  201  A    between atoms: _486  and  _487
REMARK  202  A    between atoms: _496  and  _498
REMARK  203  A    between atoms: _498  and  _499
REMARK  204  A    between atoms: _498  and  _501
REMARK  205  A    between atoms: _501  and  _502
REMARK  206  A    between atoms: _507  and  _509
REMARK  207  A    between atoms: _509  and  _510
REMARK  208  A    between atoms: _509  and  _512
REMARK  209  A    between atoms: _512  and  _513
REMARK  210  A    between atoms: _513  and  _514
REMARK  211  A    between atoms: _514  and  _515
REMARK  212  A    between atoms: _524  and  _526
REMARK  213  A    between atoms: _526  and  _527
REMARK  214  A    between atoms: _526  and  _529
REMARK  215  A    between atoms: _529  and  _530
REMARK  216  A    between atoms: _533  and  _535
REMARK  217  A    between atoms: _535  and  _536
REMARK  218  A    between atoms: _535  and  _538
REMARK  219  A    between atoms: _538  and  _539
REMARK                            x       y       z     vdW  Elec       q    Type
REMARK                         _______ _______ _______ _____ _____    ______ ____
ROOT
ATOM      1  O   HOH     1      -0.248  -6.221  40.946  0.00  0.00    +0.000 OA
ENDROOT
TORSDOF 0
REMARK  Name = ../refined-set-2016/3ivg/3ivg_pocket.pdb
REMARK  219 active torsions:
REMARK  status: ('A' for Active; 'I' for Inactive)
REMARK    1  A    between atoms: _1  and  _3
REMARK    2  A    between atoms: _3  and  _4
REMARK    3  A    between atoms: _3  and  _6
REMARK    4  A    between atoms: _6  and  _7
REMARK    5  A    between atoms: _10  and  _12
REMARK    6  A    between atoms: _12  and  _13
REMARK    7  A    between atoms: _12  and  _15
REMARK    8  A    between atoms: _19  and  _20
REMARK    9  A    between atoms: _25  and  _27
REMARK   10  A    between atoms: _27  and  _28
REMARK   11  A    between atoms: _27  and  _30
REMARK   12  A    between atoms: _30  and  _31
REMARK   13  A    between atoms: _34  and  _36
REMARK   14  A    between atoms: _36  and  _37
REMARK   15  A    between atoms: _36  and  _39
REMARK   16  A    between atoms: _39  and  _40
REMARK   17  A    between atoms: _40  and  _41
REMARK   18  A    between atoms: _43  and  _45
REMARK   19  A    between atoms: _45  and  _46
REMARK   20  A    between atoms: _48  and  _50
REMARK   21  A    between atoms: _50  and  _51
REMARK   22  A    between atoms: _54  and  _56
REMARK   23  A    between atoms: _56  and  _57
REMARK   24  A    between atoms: _56  and  _59
REMARK   25  A    between atoms: _59  and  _60
REMARK   26  A    between atoms: _63  and  _65
REMARK   27  A    between atoms: _65  and  _66
REMARK   28  A    between atoms: _65  and  _68
REMARK   29  A    between atoms: _68  and  _69
REMARK   30  A    between atoms: _74  and  _76
REMARK   31  A    between atoms: _76  and  _77
REMARK   32  A    between atoms: _76  and  _79
REMARK   33  A    between atoms: _79  and  _80
REMARK   34  A    between atoms: _80  and  _81
REMARK   35  A    between atoms: _84  and  _86
REMARK   36  A    between atoms: _86  and  _87
REMARK   37  A    between atoms: _89  and  _91
REMARK   38  A    between atoms: _91  and  _92
REMARK   39  A    between atoms: _91  and  _94
REMARK   40  A    between atoms: _94  and  _95
REMARK   41  A    between atoms: _100  and  _102
REMARK   42  A    between atoms: _102  and  _103
REMARK   43  A    between atoms: _102  and  _105
REMARK   44  A    between atoms: _105  and  _106
REMARK   45  A    between atoms: _109  and  _111
REMARK   46  A    between atoms: _111  and  _112
REMARK   47  A    between atoms: _115  and  _117
REMARK   48  A    between atoms: _117  and  _118
REMARK   49  A    between atoms: _117  and  _120
REMARK   50  A    between atoms: _120  and  _121
REMARK   51  A    between atoms: _124  and  _126
REMARK   52  A    between atoms: _126  and  _127
REMARK   53  A    between atoms: _126  and  _129
REMARK   54  A    between atoms: _132  and  _134
REMARK   55  A    between atoms: _134  and  _135
REMARK   56  A    between atoms: _138  and  _140
REMARK   57  A    between atoms: _140  and  _141
REMARK   58  A    between atoms: _140  and  _143
REMARK   59  A    between atoms: _146  and  _148
REMARK   60  A    between atoms: _148  and  _149
REMARK   61  A    between atoms: _148  and  _151
REMARK   62  A    between atoms: _151  and  _152
REMARK   63  A    between atoms: _154  and  _156
REMARK   64  A    between atoms: _156  and  _157
REMARK   65  A    between atoms: _156  and  _159
REMARK   66  A    between atoms: _159  and  _160
REMARK   67  A    between atoms: _163  and  _165
REMARK   68  A    between atoms: _165  and  _166
REMARK   69  A    between atoms: _165  and  _168
REMARK   70  A    between atoms: _168  and  _169
REMARK   71  A    between atoms: _175  and  _177
REMARK   72  A    between atoms: _177  and  _178
REMARK   73  A    between atoms: _177  and  _180
REMARK   74  A    between atoms: _183  and  _185
REMARK   75  A    between atoms: _185  and  _186
REMARK   76  A    between atoms: _185  and  _188
REMARK   77  A    between atoms: _188  and  _189
REMARK   78  A    between atoms: _194  and  _196
REMARK   79  A    between atoms: _196  and  _197
REMARK   80  A    between atoms: _196  and  _199
REMARK   81  A    between atoms: _199  and  _200
REMARK   82  A    between atoms: _200  and  _201
REMARK   83  A    between atoms: _206  and  _208
REMARK   84  A    between atoms: _208  and  _209
REMARK   85  A    between atoms: _208  and  _211
REMARK   86  A    between atoms: _211  and  _212
REMARK   87  A    between atoms: _212  and  _213
REMARK   88  A    between atoms: _215  and  _217
REMARK   89  A    between atoms: _217  and  _218
REMARK   90  A    between atoms: _217  and  _220
REMARK   91  A    between atoms: _220  and  _221
REMARK   92  A    between atoms: _226  and  _228
REMARK   93  A    between atoms: _228  and  _229
REMARK   94  A    between atoms: _228  and  _231
REMARK   95  A    between atoms: _231  and  _232
REMARK   96  A    between atoms: _238  and  _240
REMARK   97  A    between atoms: _240  and  _241
REMARK   98  A    between atoms: _243  and  _245
REMARK   99  A    between atoms: _245  and  _246
REMARK  100  A    between atoms: _245  and  _248
REMARK  101  A    between atoms: _251  and  _253
REMARK  102  A    between atoms: _253  and  _254
REMARK  103  A    between atoms: _253  and  _256
REMARK  104  A    between atoms: _256  and  _257
REMARK  105  A    between atoms: _260  and  _262
REMARK  106  A    between atoms: _262  and  _263
REMARK  107  A    between atoms: _262  and  _265
REMARK  108  A    between atoms: _265  and  _266
REMARK  109  A    between atoms: _269  and  _271
REMARK  110  A    between atoms: _271  and  _272
REMARK  111  A    between atoms: _271  and  _274
REMARK  112  A    between atoms: _277  and  _279
REMARK  113  A    between atoms: _279  and  _280
REMARK  114  A    between atoms: _279  and  _282
REMARK  115  A    between atoms: _285  and  _287
REMARK  116  A    between atoms: _287  and  _288
REMARK  117  A    between atoms: _287  and  _290
REMARK  118  A    between atoms: _290  and  _291
REMARK  119  A    between atoms: _294  and  _296
REMARK  120  A    between atoms: _296  and  _297
REMARK  121  A    between atoms: _296  and  _299
REMARK  122  A    between atoms: _299  and  _300
REMARK  123  A    between atoms: _303  and  _305
REMARK  124  A    between atoms: _305  and  _306
REMARK  125  A    between atoms: _305  and  _308
REMARK  126  A    between atoms: _308  and  _309
REMARK  127  A    between atoms: _315  and  _317
REMARK  128  A    between atoms: _317  and  _318
REMARK  129  A    between atoms: _317  and  _320
REMARK  130  A    between atoms: _320  and  _321
REMARK  131  A    between atoms: _327  and  _329
REMARK  132  A    between atoms: _329  and  _330
REMARK  133  A    between atoms: _332  and  _334
REMARK  134  A    between atoms: _334  and  _335
REMARK  135  A    between atoms: _334  and  _337
REMARK  136  A    between atoms: _337  and  _338
REMARK  137  A    between atoms: _338  and  _339
REMARK  138  A    between atoms: _342  and  _344
REMARK  139  A    between atoms: _344  and  _345
REMARK  140  A    between atoms: _344  and  _347
REMARK  141  A    between atoms: _347  and  _348
REMARK  142  A    between atoms: _348  and  _349
REMARK  143  A    between atoms: _349  and  _350
REMARK  144  A    between atoms: _350  and  _351
REMARK  145  A    between atoms: _355  and  _357
REMARK  146  A    between atoms: _357  and  _358
REMARK  147  A    between atoms: _357  and  _360
REMARK  148  A    between atoms: _360  and  _361
REMARK  149  A    between atoms: _364  and  _366
REMARK  150  A    between atoms: _366  and  _367
REMARK  151  A    between atoms: _366  and  _369
REMARK  152  A    between atoms: _369  and  _370
REMARK  153  A    between atoms: _370  and  _371
REMARK  154  A    between atoms: _376  and  _378
REMARK  155  A    between atoms: _378  and  _379
REMARK  156  A    between atoms: _378  and  _381
REMARK  157  A    between atoms: _381  and  _382
REMARK  158  A    between atoms: _385  and  _387
REMARK  159  A    between atoms: _387  and  _388
REMARK  160  A    between atoms: _390  and  _392
REMARK  161  A    between atoms: _392  and  _393
REMARK  162  A    between atoms: _392  and  _395
REMARK  163  A    between atoms: _399  and  _400
REMARK  164  A    between atoms: _405  and  _407
REMARK  165  A    between atoms: _407  and  _408
REMARK  166  A    between atoms: _407  and  _410
REMARK  167  A    between atoms: _410  and  _411
REMARK  168  A    between atoms: _414  and  _416
REMARK  169  A    between atoms: _416  and  _417
REMARK  170  A    between atoms: _416  and  _419
REMARK  171  A    between atoms: _422  and  _424
REMARK  172  A    between atoms: _424  and  _425
REMARK  173  A    between atoms: _424  and  _427
REMARK  174  A    between atoms: _427  and  _428
REMARK  175  A    between atoms: _428  and  _429
REMARK  176  A    between atoms: _429  and  _430
REMARK  177  A    between atoms: _439  and  _441
REMARK  178  A    between atoms: _441  and  _442
REMARK  179  A    between atoms: _441  and  _444
REMARK  180  A    between atoms: _444  and  _445
REMARK  181  A    between atoms: _448  and  _450
REMARK  182  A    between atoms: _450  and  _451
REMARK  183  A    between atoms: _454  and  _456
REMARK  184  A    between atoms: _456  and  _457
REMARK  185  A    between atoms: _456  and  _459
REMARK  186  A    between atoms: _459  and  _460
REMARK  187  A    between atoms: _460  and  _461
REMARK  188  A    between atoms: _463  and  _465
REMARK  189  A    between atoms: _465  and  _466
REMARK  190  A    between atoms: _465  and  _468
REMARK  191  A    between atoms: _468  and  _469
REMARK  192  A    between atoms: _471  and  _473
REMARK  193  A    between atoms: _473  and  _474
REMARK  194  A    between atoms: _473  and  _476
REMARK  195  A    between atoms: _476  and  _477
REMARK  196  A    between atoms: _479  and  _481
REMARK  197  A    between atoms: _481  and  _482
REMARK  198  A    between atoms: _481  and  _484
REMARK  199  A    between atoms: _484  and  _485
REMARK  200  A    between atoms: _485  and  _486
REMARK  201  A    between atoms: _486  and  _487
REMARK  202  A    between atoms: _496  and  _498
REMARK  203  A    between atoms: _498  and  _499
REMARK  204  A    between atoms: _498  and  _501
REMARK  205  A    between atoms: _501  and  _502
REMARK  206  A    between atoms: _507  and  _509
REMARK  207  A    between atoms: _509  and  _510
REMARK  208  A    between atoms: _509  and  _512
REMARK  209  A    between atoms: _512  and  _513
REMARK  210  A    between atoms: _513  and  _514
REMARK  211  A    between atoms: _514  and  _515
REMARK  212  A    between atoms: _524  and  _526
REMARK  213  A    between atoms: _526  and  _527
REMARK  214  A    between atoms: _526  and  _529
REMARK  215  A    between atoms: _529  and  _530
REMARK  216  A    between atoms: _533  and  _535
REMARK  217  A    between atoms: _535  and  _536
REMARK  218  A    between atoms: _535  and  _538
REMARK  219  A    between atoms: _538  and  _539
REMARK                            x       y       z     vdW  Elec       q    Type
REMARK                         _______ _______ _______ _____ _____    ______ ____
ROOT
ATOM      1  O   HOH     1       9.051  -9.533  36.524  0.00  0.00    +0.000 OA
ENDROOT
TORSDOF 0
REMARK  Name = ../refined-set-2016/3ivg/3ivg_pocket.pdb
REMARK  219 active torsions:
REMARK  status: ('A' for Active; 'I' for Inactive)
REMARK    1  A    between atoms: _1  and  _3
REMARK    2  A    between atoms: _3  and  _4
REMARK    3  A    between atoms: _3  and  _6
REMARK    4  A    between atoms: _6  and  _7
REMARK    5  A    between atoms: _10  and  _12
REMARK    6  A    between atoms: _12  and  _13
REMARK    7  A    between atoms: _12  and  _15
REMARK    8  A    between atoms: _19  and  _20
REMARK    9  A    between atoms: _25  and  _27
REMARK   10  A    between atoms: _27  and  _28
REMARK   11  A    between atoms: _27  and  _30
REMARK   12  A    between atoms: _30  and  _31
REMARK   13  A    between atoms: _34  and  _36
REMARK   14  A    between atoms: _36  and  _37
REMARK   15  A    between atoms: _36  and  _39
REMARK   16  A    between atoms: _39  and  _40
REMARK   17  A    between atoms: _40  and  _41
REMARK   18  A    between atoms: _43  and  _45
REMARK   19  A    between atoms: _45  and  _46
REMARK   20  A    between atoms: _48  and  _50
REMARK   21  A    between atoms: _50  and  _51
REMARK   22  A    between atoms: _54  and  _56
REMARK   23  A    between atoms: _56  and  _57
REMARK   24  A    between atoms: _56  and  _59
REMARK   25  A    between atoms: _59  and  _60
REMARK   26  A    between atoms: _63  and  _65
REMARK   27  A    between atoms: _65  and  _66
REMARK   28  A    between atoms: _65  and  _68
REMARK   29  A    between atoms: _68  and  _69
REMARK   30  A    between atoms: _74  and  _76
REMARK   31  A    between atoms: _76  and  _77
REMARK   32  A    between atoms: _76  and  _79
REMARK   33  A    between atoms: _79  and  _80
REMARK   34  A    between atoms: _80  and  _81
REMARK   35  A    between atoms: _84  and  _86
REMARK   36  A    between atoms: _86  and  _87
REMARK   37  A    between atoms: _89  and  _91
REMARK   38  A    between atoms: _91  and  _92
REMARK   39  A    between atoms: _91  and  _94
REMARK   40  A    between atoms: _94  and  _95
REMARK   41  A    between atoms: _100  and  _102
REMARK   42  A    between atoms: _102  and  _103
REMARK   43  A    between atoms: _102  and  _105
REMARK   44  A    between atoms: _105  and  _106
REMARK   45  A    between atoms: _109  and  _111
REMARK   46  A    between atoms: _111  and  _112
REMARK   47  A    between atoms: _115  and  _117
REMARK   48  A    between atoms: _117  and  _118
REMARK   49  A    between atoms: _117  and  _120
REMARK   50  A    between atoms: _120  and  _121
REMARK   51  A    between atoms: _124  and  _126
REMARK   52  A    between atoms: _126  and  _127
REMARK   53  A    between atoms: _126  and  _129
REMARK   54  A    between atoms: _132  and  _134
REMARK   55  A    between atoms: _134  and  _135
REMARK   56  A    between atoms: _138  and  _140
REMARK   57  A    between atoms: _140  and  _141
REMARK   58  A    between atoms: _140  and  _143
REMARK   59  A    between atoms: _146  and  _148
REMARK   60  A    between atoms: _148  and  _149
REMARK   61  A    between atoms: _148  and  _151
REMARK   62  A    between atoms: _151  and  _152
REMARK   63  A    between atoms: _154  and  _156
REMARK   64  A    between atoms: _156  and  _157
REMARK   65  A    between atoms: _156  and  _159
REMARK   66  A    between atoms: _159  and  _160
REMARK   67  A    between atoms: _163  and  _165
REMARK   68  A    between atoms: _165  and  _166
REMARK   69  A    between atoms: _165  and  _168
REMARK   70  A    between atoms: _168  and  _169
REMARK   71  A    between atoms: _175  and  _177
REMARK   72  A    between atoms: _177  and  _178
REMARK   73  A    between atoms: _177  and  _180
REMARK   74  A    between atoms: _183  and  _185
REMARK   75  A    between atoms: _185  and  _186
REMARK   76  A    between atoms: _185  and  _188
REMARK   77  A    between atoms: _188  and  _189
REMARK   78  A    between atoms: _194  and  _196
REMARK   79  A    between atoms: _196  and  _197
REMARK   80  A    between atoms: _196  and  _199
REMARK   81  A    between atoms: _199  and  _200
REMARK   82  A    between atoms: _200  and  _201
REMARK   83  A    between atoms: _206  and  _208
REMARK   84  A    between atoms: _208  and  _209
REMARK   85  A    between atoms: _208  and  _211
REMARK   86  A    between atoms: _211  and  _212
REMARK   87  A    between atoms: _212  and  _213
REMARK   88  A    between atoms: _215  and  _217
REMARK   89  A    between atoms: _217  and  _218
REMARK   90  A    between atoms: _217  and  _220
REMARK   91  A    between atoms: _220  and  _221
REMARK   92  A    between atoms: _226  and  _228
REMARK   93  A    between atoms: _228  and  _229
REMARK   94  A    between atoms: _228  and  _231
REMARK   95  A    between atoms: _231  and  _232
REMARK   96  A    between atoms: _238  and  _240
REMARK   97  A    between atoms: _240  and  _241
REMARK   98  A    between atoms: _243  and  _245
REMARK   99  A    between atoms: _245  and  _246
REMARK  100  A    between atoms: _245  and  _248
REMARK  101  A    between atoms: _251  and  _253
REMARK  102  A    between atoms: _253  and  _254
REMARK  103  A    between atoms: _253  and  _256
REMARK  104  A    between atoms: _256  and  _257
REMARK  105  A    between atoms: _260  and  _262
REMARK  106  A    between atoms: _262  and  _263
REMARK  107  A    between atoms: _262  and  _265
REMARK  108  A    between atoms: _265  and  _266
REMARK  109  A    between atoms: _269  and  _271
REMARK  110  A    between atoms: _271  and  _272
REMARK  111  A    between atoms: _271  and  _274
REMARK  112  A    between atoms: _277  and  _279
REMARK  113  A    between atoms: _279  and  _280
REMARK  114  A    between atoms: _279  and  _282
REMARK  115  A    between atoms: _285  and  _287
REMARK  116  A    between atoms: _287  and  _288
REMARK  117  A    between atoms: _287  and  _290
REMARK  118  A    between atoms: _290  and  _291
REMARK  119  A    between atoms: _294  and  _296
REMARK  120  A    between atoms: _296  and  _297
REMARK  121  A    between atoms: _296  and  _299
REMARK  122  A    between atoms: _299  and  _300
REMARK  123  A    between atoms: _303  and  _305
REMARK  124  A    between atoms: _305  and  _306
REMARK  125  A    between atoms: _305  and  _308
REMARK  126  A    between atoms: _308  and  _309
REMARK  127  A    between atoms: _315  and  _317
REMARK  128  A    between atoms: _317  and  _318
REMARK  129  A    between atoms: _317  and  _320
REMARK  130  A    between atoms: _320  and  _321
REMARK  131  A    between atoms: _327  and  _329
REMARK  132  A    between atoms: _329  and  _330
REMARK  133  A    between atoms: _332  and  _334
REMARK  134  A    between atoms: _334  and  _335
REMARK  135  A    between atoms: _334  and  _337
REMARK  136  A    between atoms: _337  and  _338
REMARK  137  A    between atoms: _338  and  _339
REMARK  138  A    between atoms: _342  and  _344
REMARK  139  A    between atoms: _344  and  _345
REMARK  140  A    between atoms: _344  and  _347
REMARK  141  A    between atoms: _347  and  _348
REMARK  142  A    between atoms: _348  and  _349
REMARK  143  A    between atoms: _349  and  _350
REMARK  144  A    between atoms: _350  and  _351
REMARK  145  A    between atoms: _355  and  _357
REMARK  146  A    between atoms: _357  and  _358
REMARK  147  A    between atoms: _357  and  _360
REMARK  148  A    between atoms: _360  and  _361
REMARK  149  A    between atoms: _364  and  _366
REMARK  150  A    between atoms: _366  and  _367
REMARK  151  A    between atoms: _366  and  _369
REMARK  152  A    between atoms: _369  and  _370
REMARK  153  A    between atoms: _370  and  _371
REMARK  154  A    between atoms: _376  and  _378
REMARK  155  A    between atoms: _378  and  _379
REMARK  156  A    between atoms: _378  and  _381
REMARK  157  A    between atoms: _381  and  _382
REMARK  158  A    between atoms: _385  and  _387
REMARK  159  A    between atoms: _387  and  _388
REMARK  160  A    between atoms: _390  and  _392
REMARK  161  A    between atoms: _392  and  _393
REMARK  162  A    between atoms: _392  and  _395
REMARK  163  A    between atoms: _399  and  _400
REMARK  164  A    between atoms: _405  and  _407
REMARK  165  A    between atoms: _407  and  _408
REMARK  166  A    between atoms: _407  and  _410
REMARK  167  A    between atoms: _410  and  _411
REMARK  168  A    between atoms: _414  and  _416
REMARK  169  A    between atoms: _416  and  _417
REMARK  170  A    between atoms: _416  and  _419
REMARK  171  A    between atoms: _422  and  _424
REMARK  172  A    between atoms: _424  and  _425
REMARK  173  A    between atoms: _424  and  _427
REMARK  174  A    between atoms: _427  and  _428
REMARK  175  A    between atoms: _428  and  _429
REMARK  176  A    between atoms: _429  and  _430
REMARK  177  A    between atoms: _439  and  _441
REMARK  178  A    between atoms: _441  and  _442
REMARK  179  A    between atoms: _441  and  _444
REMARK  180  A    between atoms: _444  and  _445
REMARK  181  A    between atoms: _448  and  _450
REMARK  182  A    between atoms: _450  and  _451
REMARK  183  A    between atoms: _454  and  _456
REMARK  184  A    between atoms: _456  and  _457
REMARK  185  A    between atoms: _456  and  _459
REMARK  186  A    between atoms: _459  and  _460
REMARK  187  A    between atoms: _460  and  _461
REMARK  188  A    between atoms: _463  and  _465
REMARK  189  A    between atoms: _465  and  _466
REMARK  190  A    between atoms: _465  and  _468
REMARK  191  A    between atoms: _468  and  _469
REMARK  192  A    between atoms: _471  and  _473
REMARK  193  A    between atoms: _473  and  _474
REMARK  194  A    between atoms: _473  and  _476
REMARK  195  A    between atoms: _476  and  _477
REMARK  196  A    between atoms: _479  and  _481
REMARK  197  A    between atoms: _481  and  _482
REMARK  198  A    between atoms: _481  and  _484
REMARK  199  A    between atoms: _484  and  _485
REMARK  200  A    between atoms: _485  and  _486
REMARK  201  A    between atoms: _486  and  _487
REMARK  202  A    between atoms: _496  and  _498
REMARK  203  A    between atoms: _498  and  _499
REMARK  204  A    between atoms: _498  and  _501
REMARK  205  A    between atoms: _501  and  _502
REMARK  206  A    between atoms: _507  and  _509
REMARK  207  A    between atoms: _509  and  _510
REMARK  208  A    between atoms: _509  and  _512
REMARK  209  A    between atoms: _512  and  _513
REMARK  210  A    between atoms: _513  and  _514
REMARK  211  A    between atoms: _514  and  _515
REMARK  212  A    between atoms: _524  and  _526
REMARK  213  A    between atoms: _526  and  _527
REMARK  214  A    between atoms: _526  and  _529
REMARK  215  A    between atoms: _529  and  _530
REMARK  216  A    between atoms: _533  and  _535
REMARK  217  A    between atoms: _535  and  _536
REMARK  218  A    between atoms: _535  and  _538
REMARK  219  A    between atoms: _538  and  _539
REMARK                            x       y       z     vdW  Elec       q    Type
REMARK                         _______ _______ _______ _____ _____    ______ ____
ROOT
ATOM      1  O   HOH     1       1.147 -15.795  38.061  0.00  0.00    +0.000 OA
ENDROOT
TORSDOF 0
REMARK  Name = ../refined-set-2016/3ivg/3ivg_pocket.pdb
REMARK  219 active torsions:
REMARK  status: ('A' for Active; 'I' for Inactive)
REMARK    1  A    between atoms: _1  and  _3
REMARK    2  A    between atoms: _3  and  _4
REMARK    3  A    between atoms: _3  and  _6
REMARK    4  A    between atoms: _6  and  _7
REMARK    5  A    between atoms: _10  and  _12
REMARK    6  A    between atoms: _12  and  _13
REMARK    7  A    between atoms: _12  and  _15
REMARK    8  A    between atoms: _19  and  _20
REMARK    9  A    between atoms: _25  and  _27
REMARK   10  A    between atoms: _27  and  _28
REMARK   11  A    between atoms: _27  and  _30
REMARK   12  A    between atoms: _30  and  _31
REMARK   13  A    between atoms: _34  and  _36
REMARK   14  A    between atoms: _36  and  _37
REMARK   15  A    between atoms: _36  and  _39
REMARK   16  A    between atoms: _39  and  _40
REMARK   17  A    between atoms: _40  and  _41
REMARK   18  A    between atoms: _43  and  _45
REMARK   19  A    between atoms: _45  and  _46
REMARK   20  A    between atoms: _48  and  _50
REMARK   21  A    between atoms: _50  and  _51
REMARK   22  A    between atoms: _54  and  _56
REMARK   23  A    between atoms: _56  and  _57
REMARK   24  A    between atoms: _56  and  _59
REMARK   25  A    between atoms: _59  and  _60
REMARK   26  A    between atoms: _63  and  _65
REMARK   27  A    between atoms: _65  and  _66
REMARK   28  A    between atoms: _65  and  _68
REMARK   29  A    between atoms: _68  and  _69
REMARK   30  A    between atoms: _74  and  _76
REMARK   31  A    between atoms: _76  and  _77
REMARK   32  A    between atoms: _76  and  _79
REMARK   33  A    between atoms: _79  and  _80
REMARK   34  A    between atoms: _80  and  _81
REMARK   35  A    between atoms: _84  and  _86
REMARK   36  A    between atoms: _86  and  _87
REMARK   37  A    between atoms: _89  and  _91
REMARK   38  A    between atoms: _91  and  _92
REMARK   39  A    between atoms: _91  and  _94
REMARK   40  A    between atoms: _94  and  _95
REMARK   41  A    between atoms: _100  and  _102
REMARK   42  A    between atoms: _102  and  _103
REMARK   43  A    between atoms: _102  and  _105
REMARK   44  A    between atoms: _105  and  _106
REMARK   45  A    between atoms: _109  and  _111
REMARK   46  A    between atoms: _111  and  _112
REMARK   47  A    between atoms: _115  and  _117
REMARK   48  A    between atoms: _117  and  _118
REMARK   49  A    between atoms: _117  and  _120
REMARK   50  A    between atoms: _120  and  _121
REMARK   51  A    between atoms: _124  and  _126
REMARK   52  A    between atoms: _126  and  _127
REMARK   53  A    between atoms: _126  and  _129
REMARK   54  A    between atoms: _132  and  _134
REMARK   55  A    between atoms: _134  and  _135
REMARK   56  A    between atoms: _138  and  _140
REMARK   57  A    between atoms: _140  and  _141
REMARK   58  A    between atoms: _140  and  _143
REMARK   59  A    between atoms: _146  and  _148
REMARK   60  A    between atoms: _148  and  _149
REMARK   61  A    between atoms: _148  and  _151
REMARK   62  A    between atoms: _151  and  _152
REMARK   63  A    between atoms: _154  and  _156
REMARK   64  A    between atoms: _156  and  _157
REMARK   65  A    between atoms: _156  and  _159
REMARK   66  A    between atoms: _159  and  _160
REMARK   67  A    between atoms: _163  and  _165
REMARK   68  A    between atoms: _165  and  _166
REMARK   69  A    between atoms: _165  and  _168
REMARK   70  A    between atoms: _168  and  _169
REMARK   71  A    between atoms: _175  and  _177
REMARK   72  A    between atoms: _177  and  _178
REMARK   73  A    between atoms: _177  and  _180
REMARK   74  A    between atoms: _183  and  _185
REMARK   75  A    between atoms: _185  and  _186
REMARK   76  A    between atoms: _185  and  _188
REMARK   77  A    between atoms: _188  and  _189
REMARK   78  A    between atoms: _194  and  _196
REMARK   79  A    between atoms: _196  and  _197
REMARK   80  A    between atoms: _196  and  _199
REMARK   81  A    between atoms: _199  and  _200
REMARK   82  A    between atoms: _200  and  _201
REMARK   83  A    between atoms: _206  and  _208
REMARK   84  A    between atoms: _208  and  _209
REMARK   85  A    between atoms: _208  and  _211
REMARK   86  A    between atoms: _211  and  _212
REMARK   87  A    between atoms: _212  and  _213
REMARK   88  A    between atoms: _215  and  _217
REMARK   89  A    between atoms: _217  and  _218
REMARK   90  A    between atoms: _217  and  _220
REMARK   91  A    between atoms: _220  and  _221
REMARK   92  A    between atoms: _226  and  _228
REMARK   93  A    between atoms: _228  and  _229
REMARK   94  A    between atoms: _228  and  _231
REMARK   95  A    between atoms: _231  and  _232
REMARK   96  A    between atoms: _238  and  _240
REMARK   97  A    between atoms: _240  and  _241
REMARK   98  A    between atoms: _243  and  _245
REMARK   99  A    between atoms: _245  and  _246
REMARK  100  A    between atoms: _245  and  _248
REMARK  101  A    between atoms: _251  and  _253
REMARK  102  A    between atoms: _253  and  _254
REMARK  103  A    between atoms: _253  and  _256
REMARK  104  A    between atoms: _256  and  _257
REMARK  105  A    between atoms: _260  and  _262
REMARK  106  A    between atoms: _262  and  _263
REMARK  107  A    between atoms: _262  and  _265
REMARK  108  A    between atoms: _265  and  _266
REMARK  109  A    between atoms: _269  and  _271
REMARK  110  A    between atoms: _271  and  _272
REMARK  111  A    between atoms: _271  and  _274
REMARK  112  A    between atoms: _277  and  _279
REMARK  113  A    between atoms: _279  and  _280
REMARK  114  A    between atoms: _279  and  _282
REMARK  115  A    between atoms: _285  and  _287
REMARK  116  A    between atoms: _287  and  _288
REMARK  117  A    between atoms: _287  and  _290
REMARK  118  A    between atoms: _290  and  _291
REMARK  119  A    between atoms: _294  and  _296
REMARK  120  A    between atoms: _296  and  _297
REMARK  121  A    between atoms: _296  and  _299
REMARK  122  A    between atoms: _299  and  _300
REMARK  123  A    between atoms: _303  and  _305
REMARK  124  A    between atoms: _305  and  _306
REMARK  125  A    between atoms: _305  and  _308
REMARK  126  A    between atoms: _308  and  _309
REMARK  127  A    between atoms: _315  and  _317
REMARK  128  A    between atoms: _317  and  _318
REMARK  129  A    between atoms: _317  and  _320
REMARK  130  A    between atoms: _320  and  _321
REMARK  131  A    between atoms: _327  and  _329
REMARK  132  A    between atoms: _329  and  _330
REMARK  133  A    between atoms: _332  and  _334
REMARK  134  A    between atoms: _334  and  _335
REMARK  135  A    between atoms: _334  and  _337
REMARK  136  A    between atoms: _337  and  _338
REMARK  137  A    between atoms: _338  and  _339
REMARK  138  A    between atoms: _342  and  _344
REMARK  139  A    between atoms: _344  and  _345
REMARK  140  A    between atoms: _344  and  _347
REMARK  141  A    between atoms: _347  and  _348
REMARK  142  A    between atoms: _348  and  _349
REMARK  143  A    between atoms: _349  and  _350
REMARK  144  A    between atoms: _350  and  _351
REMARK  145  A    between atoms: _355  and  _357
REMARK  146  A    between atoms: _357  and  _358
REMARK  147  A    between atoms: _357  and  _360
REMARK  148  A    between atoms: _360  and  _361
REMARK  149  A    between atoms: _364  and  _366
REMARK  150  A    between atoms: _366  and  _367
REMARK  151  A    between atoms: _366  and  _369
REMARK  152  A    between atoms: _369  and  _370
REMARK  153  A    between atoms: _370  and  _371
REMARK  154  A    between atoms: _376  and  _378
REMARK  155  A    between atoms: _378  and  _379
REMARK  156  A    between atoms: _378  and  _381
REMARK  157  A    between atoms: _381  and  _382
REMARK  158  A    between atoms: _385  and  _387
REMARK  159  A    between atoms: _387  and  _388
REMARK  160  A    between atoms: _390  and  _392
REMARK  161  A    between atoms: _392  and  _393
REMARK  162  A    between atoms: _392  and  _395
REMARK  163  A    between atoms: _399  and  _400
REMARK  164  A    between atoms: _405  and  _407
REMARK  165  A    between atoms: _407  and  _408
REMARK  166  A    between atoms: _407  and  _410
REMARK  167  A    between atoms: _410  and  _411
REMARK  168  A    between atoms: _414  and  _416
REMARK  169  A    between atoms: _416  and  _417
REMARK  170  A    between atoms: _416  and  _419
REMARK  171  A    between atoms: _422  and  _424
REMARK  172  A    between atoms: _424  and  _425
REMARK  173  A    between atoms: _424  and  _427
REMARK  174  A    between atoms: _427  and  _428
REMARK  175  A    between atoms: _428  and  _429
REMARK  176  A    between atoms: _429  and  _430
REMARK  177  A    between atoms: _439  and  _441
REMARK  178  A    between atoms: _441  and  _442
REMARK  179  A    between atoms: _441  and  _444
REMARK  180  A    between atoms: _444  and  _445
REMARK  181  A    between atoms: _448  and  _450
REMARK  182  A    between atoms: _450  and  _451
REMARK  183  A    between atoms: _454  and  _456
REMARK  184  A    between atoms: _456  and  _457
REMARK  185  A    between atoms: _456  and  _459
REMARK  186  A    between atoms: _459  and  _460
REMARK  187  A    between atoms: _460  and  _461
REMARK  188  A    between atoms: _463  and  _465
REMARK  189  A    between atoms: _465  and  _466
REMARK  190  A    between atoms: _465  and  _468
REMARK  191  A    between atoms: _468  and  _469
REMARK  192  A    between atoms: _471  and  _473
REMARK  193  A    between atoms: _473  and  _474
REMARK  194  A    between atoms: _473  and  _476
REMARK  195  A    between atoms: _476  and  _477
REMARK  196  A    between atoms: _479  and  _481
REMARK  197  A    between atoms: _481  and  _482
REMARK  198  A    between atoms: _481  and  _484
REMARK  199  A    between atoms: _484  and  _485
REMARK  200  A    between atoms: _485  and  _486
REMARK  201  A    between atoms: _486  and  _487
REMARK  202  A    between atoms: _496  and  _498
REMARK  203  A    between atoms: _498  and  _499
REMARK  204  A    between atoms: _498  and  _501
REMARK  205  A    between atoms: _501  and  _502
REMARK  206  A    between atoms: _507  and  _509
REMARK  207  A    between atoms: _509  and  _510
REMARK  208  A    between atoms: _509  and  _512
REMARK  209  A    between atoms: _512  and  _513
REMARK  210  A    between atoms: _513  and  _514
REMARK  211  A    between atoms: _514  and  _515
REMARK  212  A    between atoms: _524  and  _526
REMARK  213  A    between atoms: _526  and  _527
REMARK  214  A    between atoms: _526  and  _529
REMARK  215  A    between atoms: _529  and  _530
REMARK  216  A    between atoms: _533  and  _535
REMARK  217  A    between atoms: _535  and  _536
REMARK  218  A    between atoms: _535  and  _538
REMARK  219  A    between atoms: _538  and  _539
REMARK                            x       y       z     vdW  Elec       q    Type
REMARK                         _______ _______ _______ _____ _____    ______ ____
ROOT
ATOM      1  O   HOH     1       5.291 -12.192  34.661  0.00  0.00    +0.000 OA
ENDROOT
TORSDOF 0
REMARK  Name = ../refined-set-2016/3ivg/3ivg_pocket.pdb
REMARK  219 active torsions:
REMARK  status: ('A' for Active; 'I' for Inactive)
REMARK    1  A    between atoms: _1  and  _3
REMARK    2  A    between atoms: _3  and  _4
REMARK    3  A    between atoms: _3  and  _6
REMARK    4  A    between atoms: _6  and  _7
REMARK    5  A    between atoms: _10  and  _12
REMARK    6  A    between atoms: _12  and  _13
REMARK    7  A    between atoms: _12  and  _15
REMARK    8  A    between atoms: _19  and  _20
REMARK    9  A    between atoms: _25  and  _27
REMARK   10  A    between atoms: _27  and  _28
REMARK   11  A    between atoms: _27  and  _30
REMARK   12  A    between atoms: _30  and  _31
REMARK   13  A    between atoms: _34  and  _36
REMARK   14  A    between atoms: _36  and  _37
REMARK   15  A    between atoms: _36  and  _39
REMARK   16  A    between atoms: _39  and  _40
REMARK   17  A    between atoms: _40  and  _41
REMARK   18  A    between atoms: _43  and  _45
REMARK   19  A    between atoms: _45  and  _46
REMARK   20  A    between atoms: _48  and  _50
REMARK   21  A    between atoms: _50  and  _51
REMARK   22  A    between atoms: _54  and  _56
REMARK   23  A    between atoms: _56  and  _57
REMARK   24  A    between atoms: _56  and  _59
REMARK   25  A    between atoms: _59  and  _60
REMARK   26  A    between atoms: _63  and  _65
REMARK   27  A    between atoms: _65  and  _66
REMARK   28  A    between atoms: _65  and  _68
REMARK   29  A    between atoms: _68  and  _69
REMARK   30  A    between atoms: _74  and  _76
REMARK   31  A    between atoms: _76  and  _77
REMARK   32  A    between atoms: _76  and  _79
REMARK   33  A    between atoms: _79  and  _80
REMARK   34  A    between atoms: _80  and  _81
REMARK   35  A    between atoms: _84  and  _86
REMARK   36  A    between atoms: _86  and  _87
REMARK   37  A    between atoms: _89  and  _91
REMARK   38  A    between atoms: _91  and  _92
REMARK   39  A    between atoms: _91  and  _94
REMARK   40  A    between atoms: _94  and  _95
REMARK   41  A    between atoms: _100  and  _102
REMARK   42  A    between atoms: _102  and  _103
REMARK   43  A    between atoms: _102  and  _105
REMARK   44  A    between atoms: _105  and  _106
REMARK   45  A    between atoms: _109  and  _111
REMARK   46  A    between atoms: _111  and  _112
REMARK   47  A    between atoms: _115  and  _117
REMARK   48  A    between atoms: _117  and  _118
REMARK   49  A    between atoms: _117  and  _120
REMARK   50  A    between atoms: _120  and  _121
REMARK   51  A    between atoms: _124  and  _126
REMARK   52  A    between atoms: _126  and  _127
REMARK   53  A    between atoms: _126  and  _129
REMARK   54  A    between atoms: _132  and  _134
REMARK   55  A    between atoms: _134  and  _135
REMARK   56  A    between atoms: _138  and  _140
REMARK   57  A    between atoms: _140  and  _141
REMARK   58  A    between atoms: _140  and  _143
REMARK   59  A    between atoms: _146  and  _148
REMARK   60  A    between atoms: _148  and  _149
REMARK   61  A    between atoms: _148  and  _151
REMARK   62  A    between atoms: _151  and  _152
REMARK   63  A    between atoms: _154  and  _156
REMARK   64  A    between atoms: _156  and  _157
REMARK   65  A    between atoms: _156  and  _159
REMARK   66  A    between atoms: _159  and  _160
REMARK   67  A    between atoms: _163  and  _165
REMARK   68  A    between atoms: _165  and  _166
REMARK   69  A    between atoms: _165  and  _168
REMARK   70  A    between atoms: _168  and  _169
REMARK   71  A    between atoms: _175  and  _177
REMARK   72  A    between atoms: _177  and  _178
REMARK   73  A    between atoms: _177  and  _180
REMARK   74  A    between atoms: _183  and  _185
REMARK   75  A    between atoms: _185  and  _186
REMARK   76  A    between atoms: _185  and  _188
REMARK   77  A    between atoms: _188  and  _189
REMARK   78  A    between atoms: _194  and  _196
REMARK   79  A    between atoms: _196  and  _197
REMARK   80  A    between atoms: _196  and  _199
REMARK   81  A    between atoms: _199  and  _200
REMARK   82  A    between atoms: _200  and  _201
REMARK   83  A    between atoms: _206  and  _208
REMARK   84  A    between atoms: _208  and  _209
REMARK   85  A    between atoms: _208  and  _211
REMARK   86  A    between atoms: _211  and  _212
REMARK   87  A    between atoms: _212  and  _213
REMARK   88  A    between atoms: _215  and  _217
REMARK   89  A    between atoms: _217  and  _218
REMARK   90  A    between atoms: _217  and  _220
REMARK   91  A    between atoms: _220  and  _221
REMARK   92  A    between atoms: _226  and  _228
REMARK   93  A    between atoms: _228  and  _229
REMARK   94  A    between atoms: _228  and  _231
REMARK   95  A    between atoms: _231  and  _232
REMARK   96  A    between atoms: _238  and  _240
REMARK   97  A    between atoms: _240  and  _241
REMARK   98  A    between atoms: _243  and  _245
REMARK   99  A    between atoms: _245  and  _246
REMARK  100  A    between atoms: _245  and  _248
REMARK  101  A    between atoms: _251  and  _253
REMARK  102  A    between atoms: _253  and  _254
REMARK  103  A    between atoms: _253  and  _256
REMARK  104  A    between atoms: _256  and  _257
REMARK  105  A    between atoms: _260  and  _262
REMARK  106  A    between atoms: _262  and  _263
REMARK  107  A    between atoms: _262  and  _265
REMARK  108  A    between atoms: _265  and  _266
REMARK  109  A    between atoms: _269  and  _271
REMARK  110  A    between atoms: _271  and  _272
REMARK  111  A    between atoms: _271  and  _274
REMARK  112  A    between atoms: _277  and  _279
REMARK  113  A    between atoms: _279  and  _280
REMARK  114  A    between atoms: _279  and  _282
REMARK  115  A    between atoms: _285  and  _287
REMARK  116  A    between atoms: _287  and  _288
REMARK  117  A    between atoms: _287  and  _290
REMARK  118  A    between atoms: _290  and  _291
REMARK  119  A    between atoms: _294  and  _296
REMARK  120  A    between atoms: _296  and  _297
REMARK  121  A    between atoms: _296  and  _299
REMARK  122  A    between atoms: _299  and  _300
REMARK  123  A    between atoms: _303  and  _305
REMARK  124  A    between atoms: _305  and  _306
REMARK  125  A    between atoms: _305  and  _308
REMARK  126  A    between atoms: _308  and  _309
REMARK  127  A    between atoms: _315  and  _317
REMARK  128  A    between atoms: _317  and  _318
REMARK  129  A    between atoms: _317  and  _320
REMARK  130  A    between atoms: _320  and  _321
REMARK  131  A    between atoms: _327  and  _329
REMARK  132  A    between atoms: _329  and  _330
REMARK  133  A    between atoms: _332  and  _334
REMARK  134  A    between atoms: _334  and  _335
REMARK  135  A    between atoms: _334  and  _337
REMARK  136  A    between atoms: _337  and  _338
REMARK  137  A    between atoms: _338  and  _339
REMARK  138  A    between atoms: _342  and  _344
REMARK  139  A    between atoms: _344  and  _345
REMARK  140  A    between atoms: _344  and  _347
REMARK  141  A    between atoms: _347  and  _348
REMARK  142  A    between atoms: _348  and  _349
REMARK  143  A    between atoms: _349  and  _350
REMARK  144  A    between atoms: _350  and  _351
REMARK  145  A    between atoms: _355  and  _357
REMARK  146  A    between atoms: _357  and  _358
REMARK  147  A    between atoms: _357  and  _360
REMARK  148  A    between atoms: _360  and  _361
REMARK  149  A    between atoms: _364  and  _366
REMARK  150  A    between atoms: _366  and  _367
REMARK  151  A    between atoms: _366  and  _369
REMARK  152  A    between atoms: _369  and  _370
REMARK  153  A    between atoms: _370  and  _371
REMARK  154  A    between atoms: _376  and  _378
REMARK  155  A    between atoms: _378  and  _379
REMARK  156  A    between atoms: _378  and  _381
REMARK  157  A    between atoms: _381  and  _382
REMARK  158  A    between atoms: _385  and  _387
REMARK  159  A    between atoms: _387  and  _388
REMARK  160  A    between atoms: _390  and  _392
REMARK  161  A    between atoms: _392  and  _393
REMARK  162  A    between atoms: _392  and  _395
REMARK  163  A    between atoms: _399  and  _400
REMARK  164  A    between atoms: _405  and  _407
REMARK  165  A    between atoms: _407  and  _408
REMARK  166  A    between atoms: _407  and  _410
REMARK  167  A    between atoms: _410  and  _411
REMARK  168  A    between atoms: _414  and  _416
REMARK  169  A    between atoms: _416  and  _417
REMARK  170  A    between atoms: _416  and  _419
REMARK  171  A    between atoms: _422  and  _424
REMARK  172  A    between atoms: _424  and  _425
REMARK  173  A    between atoms: _424  and  _427
REMARK  174  A    between atoms: _427  and  _428
REMARK  175  A    between atoms: _428  and  _429
REMARK  176  A    between atoms: _429  and  _430
REMARK  177  A    between atoms: _439  and  _441
REMARK  178  A    between atoms: _441  and  _442
REMARK  179  A    between atoms: _441  and  _444
REMARK  180  A    between atoms: _444  and  _445
REMARK  181  A    between atoms: _448  and  _450
REMARK  182  A    between atoms: _450  and  _451
REMARK  183  A    between atoms: _454  and  _456
REMARK  184  A    between atoms: _456  and  _457
REMARK  185  A    between atoms: _456  and  _459
REMARK  186  A    between atoms: _459  and  _460
REMARK  187  A    between atoms: _460  and  _461
REMARK  188  A    between atoms: _463  and  _465
REMARK  189  A    between atoms: _465  and  _466
REMARK  190  A    between atoms: _465  and  _468
REMARK  191  A    between atoms: _468  and  _469
REMARK  192  A    between atoms: _471  and  _473
REMARK  193  A    between atoms: _473  and  _474
REMARK  194  A    between atoms: _473  and  _476
REMARK  195  A    between atoms: _476  and  _477
REMARK  196  A    between atoms: _479  and  _481
REMARK  197  A    between atoms: _481  and  _482
REMARK  198  A    between atoms: _481  and  _484
REMARK  199  A    between atoms: _484  and  _485
REMARK  200  A    between atoms: _485  and  _486
REMARK  201  A    between atoms: _486  and  _487
REMARK  202  A    between atoms: _496  and  _498
REMARK  203  A    between atoms: _498  and  _499
REMARK  204  A    between atoms: _498  and  _501
REMARK  205  A    between atoms: _501  and  _502
REMARK  206  A    between atoms: _507  and  _509
REMARK  207  A    between atoms: _509  and  _510
REMARK  208  A    between atoms: _509  and  _512
REMARK  209  A    between atoms: _512  and  _513
REMARK  210  A    between atoms: _513  and  _514
REMARK  211  A    between atoms: _514  and  _515
REMARK  212  A    between atoms: _524  and  _526
REMARK  213  A    between atoms: _526  and  _527
REMARK  214  A    between atoms: _526  and  _529
REMARK  215  A    between atoms: _529  and  _530
REMARK  216  A    between atoms: _533  and  _535
REMARK  217  A    between atoms: _535  and  _536
REMARK  218  A    between atoms: _535  and  _538
REMARK  219  A    between atoms: _538  and  _539
REMARK                            x       y       z     vdW  Elec       q    Type
REMARK                         _______ _______ _______ _____ _____    ______ ____
ROOT
ATOM      1  O   HOH     1      -7.010  -0.125  42.025  0.00  0.00    +0.000 OA
ENDROOT
TORSDOF 0
REMARK  Name = ../refined-set-2016/3ivg/3ivg_pocket.pdb
REMARK  219 active torsions:
REMARK  status: ('A' for Active; 'I' for Inactive)
REMARK    1  A    between atoms: _1  and  _3
REMARK    2  A    between atoms: _3  and  _4
REMARK    3  A    between atoms: _3  and  _6
REMARK    4  A    between atoms: _6  and  _7
REMARK    5  A    between atoms: _10  and  _12
REMARK    6  A    between atoms: _12  and  _13
REMARK    7  A    between atoms: _12  and  _15
REMARK    8  A    between atoms: _19  and  _20
REMARK    9  A    between atoms: _25  and  _27
REMARK   10  A    between atoms: _27  and  _28
REMARK   11  A    between atoms: _27  and  _30
REMARK   12  A    between atoms: _30  and  _31
REMARK   13  A    between atoms: _34  and  _36
REMARK   14  A    between atoms: _36  and  _37
REMARK   15  A    between atoms: _36  and  _39
REMARK   16  A    between atoms: _39  and  _40
REMARK   17  A    between atoms: _40  and  _41
REMARK   18  A    between atoms: _43  and  _45
REMARK   19  A    between atoms: _45  and  _46
REMARK   20  A    between atoms: _48  and  _50
REMARK   21  A    between atoms: _50  and  _51
REMARK   22  A    between atoms: _54  and  _56
REMARK   23  A    between atoms: _56  and  _57
REMARK   24  A    between atoms: _56  and  _59
REMARK   25  A    between atoms: _59  and  _60
REMARK   26  A    between atoms: _63  and  _65
REMARK   27  A    between atoms: _65  and  _66
REMARK   28  A    between atoms: _65  and  _68
REMARK   29  A    between atoms: _68  and  _69
REMARK   30  A    between atoms: _74  and  _76
REMARK   31  A    between atoms: _76  and  _77
REMARK   32  A    between atoms: _76  and  _79
REMARK   33  A    between atoms: _79  and  _80
REMARK   34  A    between atoms: _80  and  _81
REMARK   35  A    between atoms: _84  and  _86
REMARK   36  A    between atoms: _86  and  _87
REMARK   37  A    between atoms: _89  and  _91
REMARK   38  A    between atoms: _91  and  _92
REMARK   39  A    between atoms: _91  and  _94
REMARK   40  A    between atoms: _94  and  _95
REMARK   41  A    between atoms: _100  and  _102
REMARK   42  A    between atoms: _102  and  _103
REMARK   43  A    between atoms: _102  and  _105
REMARK   44  A    between atoms: _105  and  _106
REMARK   45  A    between atoms: _109  and  _111
REMARK   46  A    between atoms: _111  and  _112
REMARK   47  A    between atoms: _115  and  _117
REMARK   48  A    between atoms: _117  and  _118
REMARK   49  A    between atoms: _117  and  _120
REMARK   50  A    between atoms: _120  and  _121
REMARK   51  A    between atoms: _124  and  _126
REMARK   52  A    between atoms: _126  and  _127
REMARK   53  A    between atoms: _126  and  _129
REMARK   54  A    between atoms: _132  and  _134
REMARK   55  A    between atoms: _134  and  _135
REMARK   56  A    between atoms: _138  and  _140
REMARK   57  A    between atoms: _140  and  _141
REMARK   58  A    between atoms: _140  and  _143
REMARK   59  A    between atoms: _146  and  _148
REMARK   60  A    between atoms: _148  and  _149
REMARK   61  A    between atoms: _148  and  _151
REMARK   62  A    between atoms: _151  and  _152
REMARK   63  A    between atoms: _154  and  _156
REMARK   64  A    between atoms: _156  and  _157
REMARK   65  A    between atoms: _156  and  _159
REMARK   66  A    between atoms: _159  and  _160
REMARK   67  A    between atoms: _163  and  _165
REMARK   68  A    between atoms: _165  and  _166
REMARK   69  A    between atoms: _165  and  _168
REMARK   70  A    between atoms: _168  and  _169
REMARK   71  A    between atoms: _175  and  _177
REMARK   72  A    between atoms: _177  and  _178
REMARK   73  A    between atoms: _177  and  _180
REMARK   74  A    between atoms: _183  and  _185
REMARK   75  A    between atoms: _185  and  _186
REMARK   76  A    between atoms: _185  and  _188
REMARK   77  A    between atoms: _188  and  _189
REMARK   78  A    between atoms: _194  and  _196
REMARK   79  A    between atoms: _196  and  _197
REMARK   80  A    between atoms: _196  and  _199
REMARK   81  A    between atoms: _199  and  _200
REMARK   82  A    between atoms: _200  and  _201
REMARK   83  A    between atoms: _206  and  _208
REMARK   84  A    between atoms: _208  and  _209
REMARK   85  A    between atoms: _208  and  _211
REMARK   86  A    between atoms: _211  and  _212
REMARK   87  A    between atoms: _212  and  _213
REMARK   88  A    between atoms: _215  and  _217
REMARK   89  A    between atoms: _217  and  _218
REMARK   90  A    between atoms: _217  and  _220
REMARK   91  A    between atoms: _220  and  _221
REMARK   92  A    between atoms: _226  and  _228
REMARK   93  A    between atoms: _228  and  _229
REMARK   94  A    between atoms: _228  and  _231
REMARK   95  A    between atoms: _231  and  _232
REMARK   96  A    between atoms: _238  and  _240
REMARK   97  A    between atoms: _240  and  _241
REMARK   98  A    between atoms: _243  and  _245
REMARK   99  A    between atoms: _245  and  _246
REMARK  100  A    between atoms: _245  and  _248
REMARK  101  A    between atoms: _251  and  _253
REMARK  102  A    between atoms: _253  and  _254
REMARK  103  A    between atoms: _253  and  _256
REMARK  104  A    between atoms: _256  and  _257
REMARK  105  A    between atoms: _260  and  _262
REMARK  106  A    between atoms: _262  and  _263
REMARK  107  A    between atoms: _262  and  _265
REMARK  108  A    between atoms: _265  and  _266
REMARK  109  A    between atoms: _269  and  _271
REMARK  110  A    between atoms: _271  and  _272
REMARK  111  A    between atoms: _271  and  _274
REMARK  112  A    between atoms: _277  and  _279
REMARK  113  A    between atoms: _279  and  _280
REMARK  114  A    between atoms: _279  and  _282
REMARK  115  A    between atoms: _285  and  _287
REMARK  116  A    between atoms: _287  and  _288
REMARK  117  A    between atoms: _287  and  _290
REMARK  118  A    between atoms: _290  and  _291
REMARK  119  A    between atoms: _294  and  _296
REMARK  120  A    between atoms: _296  and  _297
REMARK  121  A    between atoms: _296  and  _299
REMARK  122  A    between atoms: _299  and  _300
REMARK  123  A    between atoms: _303  and  _305
REMARK  124  A    between atoms: _305  and  _306
REMARK  125  A    between atoms: _305  and  _308
REMARK  126  A    between atoms: _308  and  _309
REMARK  127  A    between atoms: _315  and  _317
REMARK  128  A    between atoms: _317  and  _318
REMARK  129  A    between atoms: _317  and  _320
REMARK  130  A    between atoms: _320  and  _321
REMARK  131  A    between atoms: _327  and  _329
REMARK  132  A    between atoms: _329  and  _330
REMARK  133  A    between atoms: _332  and  _334
REMARK  134  A    between atoms: _334  and  _335
REMARK  135  A    between atoms: _334  and  _337
REMARK  136  A    between atoms: _337  and  _338
REMARK  137  A    between atoms: _338  and  _339
REMARK  138  A    between atoms: _342  and  _344
REMARK  139  A    between atoms: _344  and  _345
REMARK  140  A    between atoms: _344  and  _347
REMARK  141  A    between atoms: _347  and  _348
REMARK  142  A    between atoms: _348  and  _349
REMARK  143  A    between atoms: _349  and  _350
REMARK  144  A    between atoms: _350  and  _351
REMARK  145  A    between atoms: _355  and  _357
REMARK  146  A    between atoms: _357  and  _358
REMARK  147  A    between atoms: _357  and  _360
REMARK  148  A    between atoms: _360  and  _361
REMARK  149  A    between atoms: _364  and  _366
REMARK  150  A    between atoms: _366  and  _367
REMARK  151  A    between atoms: _366  and  _369
REMARK  152  A    between atoms: _369  and  _370
REMARK  153  A    between atoms: _370  and  _371
REMARK  154  A    between atoms: _376  and  _378
REMARK  155  A    between atoms: _378  and  _379
REMARK  156  A    between atoms: _378  and  _381
REMARK  157  A    between atoms: _381  and  _382
REMARK  158  A    between atoms: _385  and  _387
REMARK  159  A    between atoms: _387  and  _388
REMARK  160  A    between atoms: _390  and  _392
REMARK  161  A    between atoms: _392  and  _393
REMARK  162  A    between atoms: _392  and  _395
REMARK  163  A    between atoms: _399  and  _400
REMARK  164  A    between atoms: _405  and  _407
REMARK  165  A    between atoms: _407  and  _408
REMARK  166  A    between atoms: _407  and  _410
REMARK  167  A    between atoms: _410  and  _411
REMARK  168  A    between atoms: _414  and  _416
REMARK  169  A    between atoms: _416  and  _417
REMARK  170  A    between atoms: _416  and  _419
REMARK  171  A    between atoms: _422  and  _424
REMARK  172  A    between atoms: _424  and  _425
REMARK  173  A    between atoms: _424  and  _427
REMARK  174  A    between atoms: _427  and  _428
REMARK  175  A    between atoms: _428  and  _429
REMARK  176  A    between atoms: _429  and  _430
REMARK  177  A    between atoms: _439  and  _441
REMARK  178  A    between atoms: _441  and  _442
REMARK  179  A    between atoms: _441  and  _444
REMARK  180  A    between atoms: _444  and  _445
REMARK  181  A    between atoms: _448  and  _450
REMARK  182  A    between atoms: _450  and  _451
REMARK  183  A    between atoms: _454  and  _456
REMARK  184  A    between atoms: _456  and  _457
REMARK  185  A    between atoms: _456  and  _459
REMARK  186  A    between atoms: _459  and  _460
REMARK  187  A    between atoms: _460  and  _461
REMARK  188  A    between atoms: _463  and  _465
REMARK  189  A    between atoms: _465  and  _466
REMARK  190  A    between atoms: _465  and  _468
REMARK  191  A    between atoms: _468  and  _469
REMARK  192  A    between atoms: _471  and  _473
REMARK  193  A    between atoms: _473  and  _474
REMARK  194  A    between atoms: _473  and  _476
REMARK  195  A    between atoms: _476  and  _477
REMARK  196  A    between atoms: _479  and  _481
REMARK  197  A    between atoms: _481  and  _482
REMARK  198  A    between atoms: _481  and  _484
REMARK  199  A    between atoms: _484  and  _485
REMARK  200  A    between atoms: _485  and  _486
REMARK  201  A    between atoms: _486  and  _487
REMARK  202  A    between atoms: _496  and  _498
REMARK  203  A    between atoms: _498  and  _499
REMARK  204  A    between atoms: _498  and  _501
REMARK  205  A    between atoms: _501  and  _502
REMARK  206  A    between atoms: _507  and  _509
REMARK  207  A    between atoms: _509  and  _510
REMARK  208  A    between atoms: _509  and  _512
REMARK  209  A    between atoms: _512  and  _513
REMARK  210  A    between atoms: _513  and  _514
REMARK  211  A    between atoms: _514  and  _515
REMARK  212  A    between atoms: _524  and  _526
REMARK  213  A    between atoms: _526  and  _527
REMARK  214  A    between atoms: _526  and  _529
REMARK  215  A    between atoms: _529  and  _530
REMARK  216  A    between atoms: _533  and  _535
REMARK  217  A    between atoms: _535  and  _536
REMARK  218  A    between atoms: _535  and  _538
REMARK  219  A    between atoms: _538  and  _539
REMARK                            x       y       z     vdW  Elec       q    Type
REMARK                         _______ _______ _______ _____ _____    ______ ____
ROOT
ATOM      1  O   HOH     1      -8.816  -8.726  44.825  0.00  0.00    +0.000 OA
ENDROOT
TORSDOF 0
REMARK  Name = ../refined-set-2016/3ivg/3ivg_pocket.pdb
REMARK  219 active torsions:
REMARK  status: ('A' for Active; 'I' for Inactive)
REMARK    1  A    between atoms: _1  and  _3
REMARK    2  A    between atoms: _3  and  _4
REMARK    3  A    between atoms: _3  and  _6
REMARK    4  A    between atoms: _6  and  _7
REMARK    5  A    between atoms: _10  and  _12
REMARK    6  A    between atoms: _12  and  _13
REMARK    7  A    between atoms: _12  and  _15
REMARK    8  A    between atoms: _19  and  _20
REMARK    9  A    between atoms: _25  and  _27
REMARK   10  A    between atoms: _27  and  _28
REMARK   11  A    between atoms: _27  and  _30
REMARK   12  A    between atoms: _30  and  _31
REMARK   13  A    between atoms: _34  and  _36
REMARK   14  A    between atoms: _36  and  _37
REMARK   15  A    between atoms: _36  and  _39
REMARK   16  A    between atoms: _39  and  _40
REMARK   17  A    between atoms: _40  and  _41
REMARK   18  A    between atoms: _43  and  _45
REMARK   19  A    between atoms: _45  and  _46
REMARK   20  A    between atoms: _48  and  _50
REMARK   21  A    between atoms: _50  and  _51
REMARK   22  A    between atoms: _54  and  _56
REMARK   23  A    between atoms: _56  and  _57
REMARK   24  A    between atoms: _56  and  _59
REMARK   25  A    between atoms: _59  and  _60
REMARK   26  A    between atoms: _63  and  _65
REMARK   27  A    between atoms: _65  and  _66
REMARK   28  A    between atoms: _65  and  _68
REMARK   29  A    between atoms: _68  and  _69
REMARK   30  A    between atoms: _74  and  _76
REMARK   31  A    between atoms: _76  and  _77
REMARK   32  A    between atoms: _76  and  _79
REMARK   33  A    between atoms: _79  and  _80
REMARK   34  A    between atoms: _80  and  _81
REMARK   35  A    between atoms: _84  and  _86
REMARK   36  A    between atoms: _86  and  _87
REMARK   37  A    between atoms: _89  and  _91
REMARK   38  A    between atoms: _91  and  _92
REMARK   39  A    between atoms: _91  and  _94
REMARK   40  A    between atoms: _94  and  _95
REMARK   41  A    between atoms: _100  and  _102
REMARK   42  A    between atoms: _102  and  _103
REMARK   43  A    between atoms: _102  and  _105
REMARK   44  A    between atoms: _105  and  _106
REMARK   45  A    between atoms: _109  and  _111
REMARK   46  A    between atoms: _111  and  _112
REMARK   47  A    between atoms: _115  and  _117
REMARK   48  A    between atoms: _117  and  _118
REMARK   49  A    between atoms: _117  and  _120
REMARK   50  A    between atoms: _120  and  _121
REMARK   51  A    between atoms: _124  and  _126
REMARK   52  A    between atoms: _126  and  _127
REMARK   53  A    between atoms: _126  and  _129
REMARK   54  A    between atoms: _132  and  _134
REMARK   55  A    between atoms: _134  and  _135
REMARK   56  A    between atoms: _138  and  _140
REMARK   57  A    between atoms: _140  and  _141
REMARK   58  A    between atoms: _140  and  _143
REMARK   59  A    between atoms: _146  and  _148
REMARK   60  A    between atoms: _148  and  _149
REMARK   61  A    between atoms: _148  and  _151
REMARK   62  A    between atoms: _151  and  _152
REMARK   63  A    between atoms: _154  and  _156
REMARK   64  A    between atoms: _156  and  _157
REMARK   65  A    between atoms: _156  and  _159
REMARK   66  A    between atoms: _159  and  _160
REMARK   67  A    between atoms: _163  and  _165
REMARK   68  A    between atoms: _165  and  _166
REMARK   69  A    between atoms: _165  and  _168
REMARK   70  A    between atoms: _168  and  _169
REMARK   71  A    between atoms: _175  and  _177
REMARK   72  A    between atoms: _177  and  _178
REMARK   73  A    between atoms: _177  and  _180
REMARK   74  A    between atoms: _183  and  _185
REMARK   75  A    between atoms: _185  and  _186
REMARK   76  A    between atoms: _185  and  _188
REMARK   77  A    between atoms: _188  and  _189
REMARK   78  A    between atoms: _194  and  _196
REMARK   79  A    between atoms: _196  and  _197
REMARK   80  A    between atoms: _196  and  _199
REMARK   81  A    between atoms: _199  and  _200
REMARK   82  A    between atoms: _200  and  _201
REMARK   83  A    between atoms: _206  and  _208
REMARK   84  A    between atoms: _208  and  _209
REMARK   85  A    between atoms: _208  and  _211
REMARK   86  A    between atoms: _211  and  _212
REMARK   87  A    between atoms: _212  and  _213
REMARK   88  A    between atoms: _215  and  _217
REMARK   89  A    between atoms: _217  and  _218
REMARK   90  A    between atoms: _217  and  _220
REMARK   91  A    between atoms: _220  and  _221
REMARK   92  A    between atoms: _226  and  _228
REMARK   93  A    between atoms: _228  and  _229
REMARK   94  A    between atoms: _228  and  _231
REMARK   95  A    between atoms: _231  and  _232
REMARK   96  A    between atoms: _238  and  _240
REMARK   97  A    between atoms: _240  and  _241
REMARK   98  A    between atoms: _243  and  _245
REMARK   99  A    between atoms: _245  and  _246
REMARK  100  A    between atoms: _245  and  _248
REMARK  101  A    between atoms: _251  and  _253
REMARK  102  A    between atoms: _253  and  _254
REMARK  103  A    between atoms: _253  and  _256
REMARK  104  A    between atoms: _256  and  _257
REMARK  105  A    between atoms: _260  and  _262
REMARK  106  A    between atoms: _262  and  _263
REMARK  107  A    between atoms: _262  and  _265
REMARK  108  A    between atoms: _265  and  _266
REMARK  109  A    between atoms: _269  and  _271
REMARK  110  A    between atoms: _271  and  _272
REMARK  111  A    between atoms: _271  and  _274
REMARK  112  A    between atoms: _277  and  _279
REMARK  113  A    between atoms: _279  and  _280
REMARK  114  A    between atoms: _279  and  _282
REMARK  115  A    between atoms: _285  and  _287
REMARK  116  A    between atoms: _287  and  _288
REMARK  117  A    between atoms: _287  and  _290
REMARK  118  A    between atoms: _290  and  _291
REMARK  119  A    between atoms: _294  and  _296
REMARK  120  A    between atoms: _296  and  _297
REMARK  121  A    between atoms: _296  and  _299
REMARK  122  A    between atoms: _299  and  _300
REMARK  123  A    between atoms: _303  and  _305
REMARK  124  A    between atoms: _305  and  _306
REMARK  125  A    between atoms: _305  and  _308
REMARK  126  A    between atoms: _308  and  _309
REMARK  127  A    between atoms: _315  and  _317
REMARK  128  A    between atoms: _317  and  _318
REMARK  129  A    between atoms: _317  and  _320
REMARK  130  A    between atoms: _320  and  _321
REMARK  131  A    between atoms: _327  and  _329
REMARK  132  A    between atoms: _329  and  _330
REMARK  133  A    between atoms: _332  and  _334
REMARK  134  A    between atoms: _334  and  _335
REMARK  135  A    between atoms: _334  and  _337
REMARK  136  A    between atoms: _337  and  _338
REMARK  137  A    between atoms: _338  and  _339
REMARK  138  A    between atoms: _342  and  _344
REMARK  139  A    between atoms: _344  and  _345
REMARK  140  A    between atoms: _344  and  _347
REMARK  141  A    between atoms: _347  and  _348
REMARK  142  A    between atoms: _348  and  _349
REMARK  143  A    between atoms: _349  and  _350
REMARK  144  A    between atoms: _350  and  _351
REMARK  145  A    between atoms: _355  and  _357
REMARK  146  A    between atoms: _357  and  _358
REMARK  147  A    between atoms: _357  and  _360
REMARK  148  A    between atoms: _360  and  _361
REMARK  149  A    between atoms: _364  and  _366
REMARK  150  A    between atoms: _366  and  _367
REMARK  151  A    between atoms: _366  and  _369
REMARK  152  A    between atoms: _369  and  _370
REMARK  153  A    between atoms: _370  and  _371
REMARK  154  A    between atoms: _376  and  _378
REMARK  155  A    between atoms: _378  and  _379
REMARK  156  A    between atoms: _378  and  _381
REMARK  157  A    between atoms: _381  and  _382
REMARK  158  A    between atoms: _385  and  _387
REMARK  159  A    between atoms: _387  and  _388
REMARK  160  A    between atoms: _390  and  _392
REMARK  161  A    between atoms: _392  and  _393
REMARK  162  A    between atoms: _392  and  _395
REMARK  163  A    between atoms: _399  and  _400
REMARK  164  A    between atoms: _405  and  _407
REMARK  165  A    between atoms: _407  and  _408
REMARK  166  A    between atoms: _407  and  _410
REMARK  167  A    between atoms: _410  and  _411
REMARK  168  A    between atoms: _414  and  _416
REMARK  169  A    between atoms: _416  and  _417
REMARK  170  A    between atoms: _416  and  _419
REMARK  171  A    between atoms: _422  and  _424
REMARK  172  A    between atoms: _424  and  _425
REMARK  173  A    between atoms: _424  and  _427
REMARK  174  A    between atoms: _427  and  _428
REMARK  175  A    between atoms: _428  and  _429
REMARK  176  A    between atoms: _429  and  _430
REMARK  177  A    between atoms: _439  and  _441
REMARK  178  A    between atoms: _441  and  _442
REMARK  179  A    between atoms: _441  and  _444
REMARK  180  A    between atoms: _444  and  _445
REMARK  181  A    between atoms: _448  and  _450
REMARK  182  A    between atoms: _450  and  _451
REMARK  183  A    between atoms: _454  and  _456
REMARK  184  A    between atoms: _456  and  _457
REMARK  185  A    between atoms: _456  and  _459
REMARK  186  A    between atoms: _459  and  _460
REMARK  187  A    between atoms: _460  and  _461
REMARK  188  A    between atoms: _463  and  _465
REMARK  189  A    between atoms: _465  and  _466
REMARK  190  A    between atoms: _465  and  _468
REMARK  191  A    between atoms: _468  and  _469
REMARK  192  A    between atoms: _471  and  _473
REMARK  193  A    between atoms: _473  and  _474
REMARK  194  A    between atoms: _473  and  _476
REMARK  195  A    between atoms: _476  and  _477
REMARK  196  A    between atoms: _479  and  _481
REMARK  197  A    between atoms: _481  and  _482
REMARK  198  A    between atoms: _481  and  _484
REMARK  199  A    between atoms: _484  and  _485
REMARK  200  A    between atoms: _485  and  _486
REMARK  201  A    between atoms: _486  and  _487
REMARK  202  A    between atoms: _496  and  _498
REMARK  203  A    between atoms: _498  and  _499
REMARK  204  A    between atoms: _498  and  _501
REMARK  205  A    between atoms: _501  and  _502
REMARK  206  A    between atoms: _507  and  _509
REMARK  207  A    between atoms: _509  and  _510
REMARK  208  A    between atoms: _509  and  _512
REMARK  209  A    between atoms: _512  and  _513
REMARK  210  A    between atoms: _513  and  _514
REMARK  211  A    between atoms: _514  and  _515
REMARK  212  A    between atoms: _524  and  _526
REMARK  213  A    between atoms: _526  and  _527
REMARK  214  A    between atoms: _526  and  _529
REMARK  215  A    between atoms: _529  and  _530
REMARK  216  A    between atoms: _533  and  _535
REMARK  217  A    between atoms: _535  and  _536
REMARK  218  A    between atoms: _535  and  _538
REMARK  219  A    between atoms: _538  and  _539
REMARK                            x       y       z     vdW  Elec       q    Type
REMARK                         _______ _______ _______ _____ _____    ______ ____
ROOT
ATOM      1  O   HOH     1      -9.968  -6.923  43.539  0.00  0.00    +0.000 OA
ENDROOT
TORSDOF 0
REMARK  Name = ../refined-set-2016/3ivg/3ivg_pocket.pdb
REMARK  219 active torsions:
REMARK  status: ('A' for Active; 'I' for Inactive)
REMARK    1  A    between atoms: _1  and  _3
REMARK    2  A    between atoms: _3  and  _4
REMARK    3  A    between atoms: _3  and  _6
REMARK    4  A    between atoms: _6  and  _7
REMARK    5  A    between atoms: _10  and  _12
REMARK    6  A    between atoms: _12  and  _13
REMARK    7  A    between atoms: _12  and  _15
REMARK    8  A    between atoms: _19  and  _20
REMARK    9  A    between atoms: _25  and  _27
REMARK   10  A    between atoms: _27  and  _28
REMARK   11  A    between atoms: _27  and  _30
REMARK   12  A    between atoms: _30  and  _31
REMARK   13  A    between atoms: _34  and  _36
REMARK   14  A    between atoms: _36  and  _37
REMARK   15  A    between atoms: _36  and  _39
REMARK   16  A    between atoms: _39  and  _40
REMARK   17  A    between atoms: _40  and  _41
REMARK   18  A    between atoms: _43  and  _45
REMARK   19  A    between atoms: _45  and  _46
REMARK   20  A    between atoms: _48  and  _50
REMARK   21  A    between atoms: _50  and  _51
REMARK   22  A    between atoms: _54  and  _56
REMARK   23  A    between atoms: _56  and  _57
REMARK   24  A    between atoms: _56  and  _59
REMARK   25  A    between atoms: _59  and  _60
REMARK   26  A    between atoms: _63  and  _65
REMARK   27  A    between atoms: _65  and  _66
REMARK   28  A    between atoms: _65  and  _68
REMARK   29  A    between atoms: _68  and  _69
REMARK   30  A    between atoms: _74  and  _76
REMARK   31  A    between atoms: _76  and  _77
REMARK   32  A    between atoms: _76  and  _79
REMARK   33  A    between atoms: _79  and  _80
REMARK   34  A    between atoms: _80  and  _81
REMARK   35  A    between atoms: _84  and  _86
REMARK   36  A    between atoms: _86  and  _87
REMARK   37  A    between atoms: _89  and  _91
REMARK   38  A    between atoms: _91  and  _92
REMARK   39  A    between atoms: _91  and  _94
REMARK   40  A    between atoms: _94  and  _95
REMARK   41  A    between atoms: _100  and  _102
REMARK   42  A    between atoms: _102  and  _103
REMARK   43  A    between atoms: _102  and  _105
REMARK   44  A    between atoms: _105  and  _106
REMARK   45  A    between atoms: _109  and  _111
REMARK   46  A    between atoms: _111  and  _112
REMARK   47  A    between atoms: _115  and  _117
REMARK   48  A    between atoms: _117  and  _118
REMARK   49  A    between atoms: _117  and  _120
REMARK   50  A    between atoms: _120  and  _121
REMARK   51  A    between atoms: _124  and  _126
REMARK   52  A    between atoms: _126  and  _127
REMARK   53  A    between atoms: _126  and  _129
REMARK   54  A    between atoms: _132  and  _134
REMARK   55  A    between atoms: _134  and  _135
REMARK   56  A    between atoms: _138  and  _140
REMARK   57  A    between atoms: _140  and  _141
REMARK   58  A    between atoms: _140  and  _143
REMARK   59  A    between atoms: _146  and  _148
REMARK   60  A    between atoms: _148  and  _149
REMARK   61  A    between atoms: _148  and  _151
REMARK   62  A    between atoms: _151  and  _152
REMARK   63  A    between atoms: _154  and  _156
REMARK   64  A    between atoms: _156  and  _157
REMARK   65  A    between atoms: _156  and  _159
REMARK   66  A    between atoms: _159  and  _160
REMARK   67  A    between atoms: _163  and  _165
REMARK   68  A    between atoms: _165  and  _166
REMARK   69  A    between atoms: _165  and  _168
REMARK   70  A    between atoms: _168  and  _169
REMARK   71  A    between atoms: _175  and  _177
REMARK   72  A    between atoms: _177  and  _178
REMARK   73  A    between atoms: _177  and  _180
REMARK   74  A    between atoms: _183  and  _185
REMARK   75  A    between atoms: _185  and  _186
REMARK   76  A    between atoms: _185  and  _188
REMARK   77  A    between atoms: _188  and  _189
REMARK   78  A    between atoms: _194  and  _196
REMARK   79  A    between atoms: _196  and  _197
REMARK   80  A    between atoms: _196  and  _199
REMARK   81  A    between atoms: _199  and  _200
REMARK   82  A    between atoms: _200  and  _201
REMARK   83  A    between atoms: _206  and  _208
REMARK   84  A    between atoms: _208  and  _209
REMARK   85  A    between atoms: _208  and  _211
REMARK   86  A    between atoms: _211  and  _212
REMARK   87  A    between atoms: _212  and  _213
REMARK   88  A    between atoms: _215  and  _217
REMARK   89  A    between atoms: _217  and  _218
REMARK   90  A    between atoms: _217  and  _220
REMARK   91  A    between atoms: _220  and  _221
REMARK   92  A    between atoms: _226  and  _228
REMARK   93  A    between atoms: _228  and  _229
REMARK   94  A    between atoms: _228  and  _231
REMARK   95  A    between atoms: _231  and  _232
REMARK   96  A    between atoms: _238  and  _240
REMARK   97  A    between atoms: _240  and  _241
REMARK   98  A    between atoms: _243  and  _245
REMARK   99  A    between atoms: _245  and  _246
REMARK  100  A    between atoms: _245  and  _248
REMARK  101  A    between atoms: _251  and  _253
REMARK  102  A    between atoms: _253  and  _254
REMARK  103  A    between atoms: _253  and  _256
REMARK  104  A    between atoms: _256  and  _257
REMARK  105  A    between atoms: _260  and  _262
REMARK  106  A    between atoms: _262  and  _263
REMARK  107  A    between atoms: _262  and  _265
REMARK  108  A    between atoms: _265  and  _266
REMARK  109  A    between atoms: _269  and  _271
REMARK  110  A    between atoms: _271  and  _272
REMARK  111  A    between atoms: _271  and  _274
REMARK  112  A    between atoms: _277  and  _279
REMARK  113  A    between atoms: _279  and  _280
REMARK  114  A    between atoms: _279  and  _282
REMARK  115  A    between atoms: _285  and  _287
REMARK  116  A    between atoms: _287  and  _288
REMARK  117  A    between atoms: _287  and  _290
REMARK  118  A    between atoms: _290  and  _291
REMARK  119  A    between atoms: _294  and  _296
REMARK  120  A    between atoms: _296  and  _297
REMARK  121  A    between atoms: _296  and  _299
REMARK  122  A    between atoms: _299  and  _300
REMARK  123  A    between atoms: _303  and  _305
REMARK  124  A    between atoms: _305  and  _306
REMARK  125  A    between atoms: _305  and  _308
REMARK  126  A    between atoms: _308  and  _309
REMARK  127  A    between atoms: _315  and  _317
REMARK  128  A    between atoms: _317  and  _318
REMARK  129  A    between atoms: _317  and  _320
REMARK  130  A    between atoms: _320  and  _321
REMARK  131  A    between atoms: _327  and  _329
REMARK  132  A    between atoms: _329  and  _330
REMARK  133  A    between atoms: _332  and  _334
REMARK  134  A    between atoms: _334  and  _335
REMARK  135  A    between atoms: _334  and  _337
REMARK  136  A    between atoms: _337  and  _338
REMARK  137  A    between atoms: _338  and  _339
REMARK  138  A    between atoms: _342  and  _344
REMARK  139  A    between atoms: _344  and  _345
REMARK  140  A    between atoms: _344  and  _347
REMARK  141  A    between atoms: _347  and  _348
REMARK  142  A    between atoms: _348  and  _349
REMARK  143  A    between atoms: _349  and  _350
REMARK  144  A    between atoms: _350  and  _351
REMARK  145  A    between atoms: _355  and  _357
REMARK  146  A    between atoms: _357  and  _358
REMARK  147  A    between atoms: _357  and  _360
REMARK  148  A    between atoms: _360  and  _361
REMARK  149  A    between atoms: _364  and  _366
REMARK  150  A    between atoms: _366  and  _367
REMARK  151  A    between atoms: _366  and  _369
REMARK  152  A    between atoms: _369  and  _370
REMARK  153  A    between atoms: _370  and  _371
REMARK  154  A    between atoms: _376  and  _378
REMARK  155  A    between atoms: _378  and  _379
REMARK  156  A    between atoms: _378  and  _381
REMARK  157  A    between atoms: _381  and  _382
REMARK  158  A    between atoms: _385  and  _387
REMARK  159  A    between atoms: _387  and  _388
REMARK  160  A    between atoms: _390  and  _392
REMARK  161  A    between atoms: _392  and  _393
REMARK  162  A    between atoms: _392  and  _395
REMARK  163  A    between atoms: _399  and  _400
REMARK  164  A    between atoms: _405  and  _407
REMARK  165  A    between atoms: _407  and  _408
REMARK  166  A    between atoms: _407  and  _410
REMARK  167  A    between atoms: _410  and  _411
REMARK  168  A    between atoms: _414  and  _416
REMARK  169  A    between atoms: _416  and  _417
REMARK  170  A    between atoms: _416  and  _419
REMARK  171  A    between atoms: _422  and  _424
REMARK  172  A    between atoms: _424  and  _425
REMARK  173  A    between atoms: _424  and  _427
REMARK  174  A    between atoms: _427  and  _428
REMARK  175  A    between atoms: _428  and  _429
REMARK  176  A    between atoms: _429  and  _430
REMARK  177  A    between atoms: _439  and  _441
REMARK  178  A    between atoms: _441  and  _442
REMARK  179  A    between atoms: _441  and  _444
REMARK  180  A    between atoms: _444  and  _445
REMARK  181  A    between atoms: _448  and  _450
REMARK  182  A    between atoms: _450  and  _451
REMARK  183  A    between atoms: _454  and  _456
REMARK  184  A    between atoms: _456  and  _457
REMARK  185  A    between atoms: _456  and  _459
REMARK  186  A    between atoms: _459  and  _460
REMARK  187  A    between atoms: _460  and  _461
REMARK  188  A    between atoms: _463  and  _465
REMARK  189  A    between atoms: _465  and  _466
REMARK  190  A    between atoms: _465  and  _468
REMARK  191  A    between atoms: _468  and  _469
REMARK  192  A    between atoms: _471  and  _473
REMARK  193  A    between atoms: _473  and  _474
REMARK  194  A    between atoms: _473  and  _476
REMARK  195  A    between atoms: _476  and  _477
REMARK  196  A    between atoms: _479  and  _481
REMARK  197  A    between atoms: _481  and  _482
REMARK  198  A    between atoms: _481  and  _484
REMARK  199  A    between atoms: _484  and  _485
REMARK  200  A    between atoms: _485  and  _486
REMARK  201  A    between atoms: _486  and  _487
REMARK  202  A    between atoms: _496  and  _498
REMARK  203  A    between atoms: _498  and  _499
REMARK  204  A    between atoms: _498  and  _501
REMARK  205  A    between atoms: _501  and  _502
REMARK  206  A    between atoms: _507  and  _509
REMARK  207  A    between atoms: _509  and  _510
REMARK  208  A    between atoms: _509  and  _512
REMARK  209  A    between atoms: _512  and  _513
REMARK  210  A    between atoms: _513  and  _514
REMARK  211  A    between atoms: _514  and  _515
REMARK  212  A    between atoms: _524  and  _526
REMARK  213  A    between atoms: _526  and  _527
REMARK  214  A    between atoms: _526  and  _529
REMARK  215  A    between atoms: _529  and  _530
REMARK  216  A    between atoms: _533  and  _535
REMARK  217  A    between atoms: _535  and  _536
REMARK  218  A    between atoms: _535  and  _538
REMARK  219  A    between atoms: _538  and  _539
REMARK                            x       y       z     vdW  Elec       q    Type
REMARK                         _______ _______ _______ _____ _____    ______ ____
ROOT
ATOM      1  O   HOH     1       3.859  -5.025  35.633  0.00  0.00    +0.000 OA
ENDROOT
TORSDOF 0
