REMARK  Name = ../refined-set-2016/3ouj/3ouj_pocket.pdb
REMARK  166 active torsions:
REMARK  status: ('A' for Active; 'I' for Inactive)
REMARK    1  A    between atoms: _1  and  _3
REMARK    2  A    between atoms: _3  and  _4
REMARK    3  A    between atoms: _3  and  _6
REMARK    4  A    between atoms: _6  and  _7
REMARK    5  A    between atoms: _9  and  _11
REMARK    6  A    between atoms: _11  and  _12
REMARK    7  A    between atoms: _11  and  _14
REMARK    8  A    between atoms: _14  and  _15
REMARK    9  A    between atoms: _15  and  _16
REMARK   10  A    between atoms: _16  and  _17
REMARK   11  A    between atoms: _26  and  _28
REMARK   12  A    between atoms: _28  and  _29
REMARK   13  A    between atoms: _28  and  _31
REMARK   14  A    between atoms: _31  and  _32
REMARK   15  A    between atoms: _35  and  _37
REMARK   16  A    between atoms: _37  and  _38
REMARK   17  A    between atoms: _37  and  _40
REMARK   18  A    between atoms: _40  and  _41
REMARK   19  A    between atoms: _44  and  _46
REMARK   20  A    between atoms: _46  and  _47
REMARK   21  A    between atoms: _46  and  _49
REMARK   22  A    between atoms: _49  and  _50
REMARK   23  A    between atoms: _50  and  _51
REMARK   24  A    between atoms: _53  and  _55
REMARK   25  A    between atoms: _55  and  _56
REMARK   26  A    between atoms: _59  and  _61
REMARK   27  A    between atoms: _61  and  _62
REMARK   28  A    between atoms: _61  and  _64
REMARK   29  A    between atoms: _66  and  _68
REMARK   30  A    between atoms: _68  and  _69
REMARK   31  A    between atoms: _68  and  _71
REMARK   32  A    between atoms: _71  and  _72
REMARK   33  A    between atoms: _77  and  _78
REMARK   34  A    between atoms: _80  and  _82
REMARK   35  A    between atoms: _82  and  _83
REMARK   36  A    between atoms: _85  and  _87
REMARK   37  A    between atoms: _87  and  _88
REMARK   38  A    between atoms: _87  and  _90
REMARK   39  A    between atoms: _90  and  _91
REMARK   40  A    between atoms: _96  and  _97
REMARK   41  A    between atoms: _99  and  _101
REMARK   42  A    between atoms: _101  and  _102
REMARK   43  A    between atoms: _101  and  _104
REMARK   44  A    between atoms: _107  and  _109
REMARK   45  A    between atoms: _120  and  _123
REMARK   46  A    between atoms: _128  and  _129
REMARK   47  A    between atoms: _135  and  _137
REMARK   48  A    between atoms: _137  and  _138
REMARK   49  A    between atoms: _137  and  _140
REMARK   50  A    between atoms: _140  and  _141
REMARK   51  A    between atoms: _141  and  _142
REMARK   52  A    between atoms: _142  and  _143
REMARK   53  A    between atoms: _152  and  _154
REMARK   54  A    between atoms: _154  and  _155
REMARK   55  A    between atoms: _154  and  _157
REMARK   56  A    between atoms: _157  and  _158
REMARK   57  A    between atoms: _161  and  _163
REMARK   58  A    between atoms: _163  and  _164
REMARK   59  A    between atoms: _163  and  _166
REMARK   60  A    between atoms: _166  and  _167
REMARK   61  A    between atoms: _170  and  _172
REMARK   62  A    between atoms: _172  and  _173
REMARK   63  A    between atoms: _172  and  _175
REMARK   64  A    between atoms: _175  and  _176
REMARK   65  A    between atoms: _181  and  _182
REMARK   66  A    between atoms: _184  and  _186
REMARK   67  A    between atoms: _186  and  _187
REMARK   68  A    between atoms: _186  and  _189
REMARK   69  A    between atoms: _189  and  _190
REMARK   70  A    between atoms: _195  and  _196
REMARK   71  A    between atoms: _198  and  _200
REMARK   72  A    between atoms: _200  and  _201
REMARK   73  A    between atoms: _200  and  _203
REMARK   74  A    between atoms: _203  and  _204
REMARK   75  A    between atoms: _209  and  _211
REMARK   76  A    between atoms: _211  and  _212
REMARK   77  A    between atoms: _214  and  _216
REMARK   78  A    between atoms: _216  and  _217
REMARK   79  A    between atoms: _216  and  _219
REMARK   80  A    between atoms: _219  and  _220
REMARK   81  A    between atoms: _223  and  _225
REMARK   82  A    between atoms: _225  and  _226
REMARK   83  A    between atoms: _225  and  _228
REMARK   84  A    between atoms: _228  and  _229
REMARK   85  A    between atoms: _232  and  _234
REMARK   86  A    between atoms: _234  and  _235
REMARK   87  A    between atoms: _234  and  _237
REMARK   88  A    between atoms: _237  and  _238
REMARK   89  A    between atoms: _238  and  _239
REMARK   90  A    between atoms: _239  and  _240
REMARK   91  A    between atoms: _249  and  _251
REMARK   92  A    between atoms: _251  and  _252
REMARK   93  A    between atoms: _251  and  _254
REMARK   94  A    between atoms: _254  and  _255
REMARK   95  A    between atoms: _258  and  _260
REMARK   96  A    between atoms: _260  and  _261
REMARK   97  A    between atoms: _260  and  _263
REMARK   98  A    between atoms: _263  and  _264
REMARK   99  A    between atoms: _267  and  _269
REMARK  100  A    between atoms: _269  and  _270
REMARK  101  A    between atoms: _269  and  _272
REMARK  102  A    between atoms: _272  and  _273
REMARK  103  A    between atoms: _273  and  _274
REMARK  104  A    between atoms: _278  and  _279
REMARK  105  A    between atoms: _284  and  _286
REMARK  106  A    between atoms: _286  and  _287
REMARK  107  A    between atoms: _286  and  _289
REMARK  108  A    between atoms: _289  and  _290
REMARK  109  A    between atoms: _293  and  _295
REMARK  110  A    between atoms: _295  and  _296
REMARK  111  A    between atoms: _295  and  _298
REMARK  112  A    between atoms: _298  and  _299
REMARK  113  A    between atoms: _305  and  _307
REMARK  114  A    between atoms: _307  and  _308
REMARK  115  A    between atoms: _307  and  _310
REMARK  116  A    between atoms: _310  and  _311
REMARK  117  A    between atoms: _316  and  _318
REMARK  118  A    between atoms: _318  and  _319
REMARK  119  A    between atoms: _318  and  _321
REMARK  120  A    between atoms: _321  and  _322
REMARK  121  A    between atoms: _326  and  FE_441
REMARK  122  A    between atoms: _327  and  _329
REMARK  123  A    between atoms: _329  and  _330
REMARK  124  A    between atoms: _329  and  _332
REMARK  125  A    between atoms: _332  and  _333
REMARK  126  A    between atoms: _333  and  _334
REMARK  127  A    between atoms: _337  and  _339
REMARK  128  A    between atoms: _339  and  _340
REMARK  129  A    between atoms: _339  and  _342
REMARK  130  A    between atoms: _345  and  _347
REMARK  131  A    between atoms: _347  and  _348
REMARK  132  A    between atoms: _347  and  _350
REMARK  133  A    between atoms: _350  and  _351
REMARK  134  A    between atoms: _351  and  _352
REMARK  135  A    between atoms: _357  and  _359
REMARK  136  A    between atoms: _359  and  _360
REMARK  137  A    between atoms: _359  and  _362
REMARK  138  A    between atoms: _362  and  _363
REMARK  139  A    between atoms: _363  and  _364
REMARK  140  A    between atoms: _364  and  _365
REMARK  141  A    between atoms: _374  and  _376
REMARK  142  A    between atoms: _376  and  _377
REMARK  143  A    between atoms: _376  and  _379
REMARK  144  A    between atoms: _379  and  _380
REMARK  145  A    between atoms: _385  and  _386
REMARK  146  A    between atoms: _388  and  _390
REMARK  147  A    between atoms: _390  and  _391
REMARK  148  A    between atoms: _394  and  _396
REMARK  149  A    between atoms: _396  and  _397
REMARK  150  A    between atoms: _396  and  _399
REMARK  151  A    between atoms: _399  and  _400
REMARK  152  A    between atoms: _403  and  _405
REMARK  153  A    between atoms: _405  and  _406
REMARK  154  A    between atoms: _405  and  _408
REMARK  155  A    between atoms: _408  and  _409
REMARK  156  A    between atoms: _412  and  _414
REMARK  157  A    between atoms: _414  and  _415
REMARK  158  A    between atoms: _414  and  _417
REMARK  159  A    between atoms: _417  and  _418
REMARK  160  A    between atoms: _428  and  _430
REMARK  161  A    between atoms: _430  and  _431
REMARK  162  A    between atoms: _430  and  _433
REMARK  163  A    between atoms: _433  and  _434
REMARK  164  A    between atoms: _434  and  _435
REMARK  165  A    between atoms: _435  and  _436
REMARK  166  A    between atoms: _436  and  _437
REMARK                            x       y       z     vdW  Elec       q    Type
REMARK                         _______ _______ _______ _____ _____    ______ ____
ROOT
ATOM      1  CA  SER A   1      20.585  19.513 -11.909  0.00  0.00    +0.163 C 
ENDROOT
BRANCH   1   2
ATOM      2  N   SER A   1      21.230  18.704 -10.876  0.00  0.00    -0.237 NA
ATOM      3  H   SER A   1      21.790  19.178 -10.139  0.00  0.00    +0.142 HD
ENDBRANCH   1   2
BRANCH   1   4
ATOM      4  C   SER A   1      21.433  19.652 -13.172  0.00  0.00    +0.227 C 
ATOM      5  O   SER A   1      20.875  19.845 -14.244  0.00  0.00    -0.287 OA
ENDBRANCH   1   4
BRANCH   1   6
ATOM      6  CB  SER A   1      20.230  20.908 -11.365  0.00  0.00    +0.162 C 
BRANCH   6   7
ATOM      7  OG  SER A   1      19.191  20.845 -10.398  0.00  0.00    -0.380 OA
ATOM      8  H   SER A   1      18.990  21.758 -10.071  0.00  0.00    +0.211 HD
ENDBRANCH   6   7
ENDBRANCH   1   6
TORSDOF 4
REMARK  Name = ../refined-set-2016/3ouj/3ouj_pocket.pdb
REMARK  166 active torsions:
REMARK  status: ('A' for Active; 'I' for Inactive)
REMARK    1  A    between atoms: _1  and  _3
REMARK    2  A    between atoms: _3  and  _4
REMARK    3  A    between atoms: _3  and  _6
REMARK    4  A    between atoms: _6  and  _7
REMARK    5  A    between atoms: _9  and  _11
REMARK    6  A    between atoms: _11  and  _12
REMARK    7  A    between atoms: _11  and  _14
REMARK    8  A    between atoms: _14  and  _15
REMARK    9  A    between atoms: _15  and  _16
REMARK   10  A    between atoms: _16  and  _17
REMARK   11  A    between atoms: _26  and  _28
REMARK   12  A    between atoms: _28  and  _29
REMARK   13  A    between atoms: _28  and  _31
REMARK   14  A    between atoms: _31  and  _32
REMARK   15  A    between atoms: _35  and  _37
REMARK   16  A    between atoms: _37  and  _38
REMARK   17  A    between atoms: _37  and  _40
REMARK   18  A    between atoms: _40  and  _41
REMARK   19  A    between atoms: _44  and  _46
REMARK   20  A    between atoms: _46  and  _47
REMARK   21  A    between atoms: _46  and  _49
REMARK   22  A    between atoms: _49  and  _50
REMARK   23  A    between atoms: _50  and  _51
REMARK   24  A    between atoms: _53  and  _55
REMARK   25  A    between atoms: _55  and  _56
REMARK   26  A    between atoms: _59  and  _61
REMARK   27  A    between atoms: _61  and  _62
REMARK   28  A    between atoms: _61  and  _64
REMARK   29  A    between atoms: _66  and  _68
REMARK   30  A    between atoms: _68  and  _69
REMARK   31  A    between atoms: _68  and  _71
REMARK   32  A    between atoms: _71  and  _72
REMARK   33  A    between atoms: _77  and  _78
REMARK   34  A    between atoms: _80  and  _82
REMARK   35  A    between atoms: _82  and  _83
REMARK   36  A    between atoms: _85  and  _87
REMARK   37  A    between atoms: _87  and  _88
REMARK   38  A    between atoms: _87  and  _90
REMARK   39  A    between atoms: _90  and  _91
REMARK   40  A    between atoms: _96  and  _97
REMARK   41  A    between atoms: _99  and  _101
REMARK   42  A    between atoms: _101  and  _102
REMARK   43  A    between atoms: _101  and  _104
REMARK   44  A    between atoms: _107  and  _109
REMARK   45  A    between atoms: _120  and  _123
REMARK   46  A    between atoms: _128  and  _129
REMARK   47  A    between atoms: _135  and  _137
REMARK   48  A    between atoms: _137  and  _138
REMARK   49  A    between atoms: _137  and  _140
REMARK   50  A    between atoms: _140  and  _141
REMARK   51  A    between atoms: _141  and  _142
REMARK   52  A    between atoms: _142  and  _143
REMARK   53  A    between atoms: _152  and  _154
REMARK   54  A    between atoms: _154  and  _155
REMARK   55  A    between atoms: _154  and  _157
REMARK   56  A    between atoms: _157  and  _158
REMARK   57  A    between atoms: _161  and  _163
REMARK   58  A    between atoms: _163  and  _164
REMARK   59  A    between atoms: _163  and  _166
REMARK   60  A    between atoms: _166  and  _167
REMARK   61  A    between atoms: _170  and  _172
REMARK   62  A    between atoms: _172  and  _173
REMARK   63  A    between atoms: _172  and  _175
REMARK   64  A    between atoms: _175  and  _176
REMARK   65  A    between atoms: _181  and  _182
REMARK   66  A    between atoms: _184  and  _186
REMARK   67  A    between atoms: _186  and  _187
REMARK   68  A    between atoms: _186  and  _189
REMARK   69  A    between atoms: _189  and  _190
REMARK   70  A    between atoms: _195  and  _196
REMARK   71  A    between atoms: _198  and  _200
REMARK   72  A    between atoms: _200  and  _201
REMARK   73  A    between atoms: _200  and  _203
REMARK   74  A    between atoms: _203  and  _204
REMARK   75  A    between atoms: _209  and  _211
REMARK   76  A    between atoms: _211  and  _212
REMARK   77  A    between atoms: _214  and  _216
REMARK   78  A    between atoms: _216  and  _217
REMARK   79  A    between atoms: _216  and  _219
REMARK   80  A    between atoms: _219  and  _220
REMARK   81  A    between atoms: _223  and  _225
REMARK   82  A    between atoms: _225  and  _226
REMARK   83  A    between atoms: _225  and  _228
REMARK   84  A    between atoms: _228  and  _229
REMARK   85  A    between atoms: _232  and  _234
REMARK   86  A    between atoms: _234  and  _235
REMARK   87  A    between atoms: _234  and  _237
REMARK   88  A    between atoms: _237  and  _238
REMARK   89  A    between atoms: _238  and  _239
REMARK   90  A    between atoms: _239  and  _240
REMARK   91  A    between atoms: _249  and  _251
REMARK   92  A    between atoms: _251  and  _252
REMARK   93  A    between atoms: _251  and  _254
REMARK   94  A    between atoms: _254  and  _255
REMARK   95  A    between atoms: _258  and  _260
REMARK   96  A    between atoms: _260  and  _261
REMARK   97  A    between atoms: _260  and  _263
REMARK   98  A    between atoms: _263  and  _264
REMARK   99  A    between atoms: _267  and  _269
REMARK  100  A    between atoms: _269  and  _270
REMARK  101  A    between atoms: _269  and  _272
REMARK  102  A    between atoms: _272  and  _273
REMARK  103  A    between atoms: _273  and  _274
REMARK  104  A    between atoms: _278  and  _279
REMARK  105  A    between atoms: _284  and  _286
REMARK  106  A    between atoms: _286  and  _287
REMARK  107  A    between atoms: _286  and  _289
REMARK  108  A    between atoms: _289  and  _290
REMARK  109  A    between atoms: _293  and  _295
REMARK  110  A    between atoms: _295  and  _296
REMARK  111  A    between atoms: _295  and  _298
REMARK  112  A    between atoms: _298  and  _299
REMARK  113  A    between atoms: _305  and  _307
REMARK  114  A    between atoms: _307  and  _308
REMARK  115  A    between atoms: _307  and  _310
REMARK  116  A    between atoms: _310  and  _311
REMARK  117  A    between atoms: _316  and  _318
REMARK  118  A    between atoms: _318  and  _319
REMARK  119  A    between atoms: _318  and  _321
REMARK  120  A    between atoms: _321  and  _322
REMARK  121  A    between atoms: _326  and  FE_441
REMARK  122  A    between atoms: _327  and  _329
REMARK  123  A    between atoms: _329  and  _330
REMARK  124  A    between atoms: _329  and  _332
REMARK  125  A    between atoms: _332  and  _333
REMARK  126  A    between atoms: _333  and  _334
REMARK  127  A    between atoms: _337  and  _339
REMARK  128  A    between atoms: _339  and  _340
REMARK  129  A    between atoms: _339  and  _342
REMARK  130  A    between atoms: _345  and  _347
REMARK  131  A    between atoms: _347  and  _348
REMARK  132  A    between atoms: _347  and  _350
REMARK  133  A    between atoms: _350  and  _351
REMARK  134  A    between atoms: _351  and  _352
REMARK  135  A    between atoms: _357  and  _359
REMARK  136  A    between atoms: _359  and  _360
REMARK  137  A    between atoms: _359  and  _362
REMARK  138  A    between atoms: _362  and  _363
REMARK  139  A    between atoms: _363  and  _364
REMARK  140  A    between atoms: _364  and  _365
REMARK  141  A    between atoms: _374  and  _376
REMARK  142  A    between atoms: _376  and  _377
REMARK  143  A    between atoms: _376  and  _379
REMARK  144  A    between atoms: _379  and  _380
REMARK  145  A    between atoms: _385  and  _386
REMARK  146  A    between atoms: _388  and  _390
REMARK  147  A    between atoms: _390  and  _391
REMARK  148  A    between atoms: _394  and  _396
REMARK  149  A    between atoms: _396  and  _397
REMARK  150  A    between atoms: _396  and  _399
REMARK  151  A    between atoms: _399  and  _400
REMARK  152  A    between atoms: _403  and  _405
REMARK  153  A    between atoms: _405  and  _406
REMARK  154  A    between atoms: _405  and  _408
REMARK  155  A    between atoms: _408  and  _409
REMARK  156  A    between atoms: _412  and  _414
REMARK  157  A    between atoms: _414  and  _415
REMARK  158  A    between atoms: _414  and  _417
REMARK  159  A    between atoms: _417  and  _418
REMARK  160  A    between atoms: _428  and  _430
REMARK  161  A    between atoms: _430  and  _431
REMARK  162  A    between atoms: _430  and  _433
REMARK  163  A    between atoms: _433  and  _434
REMARK  164  A    between atoms: _434  and  _435
REMARK  165  A    between atoms: _435  and  _436
REMARK  166  A    between atoms: _436  and  _437
REMARK                            x       y       z     vdW  Elec       q    Type
REMARK                         _______ _______ _______ _____ _____    ______ ____
ROOT
ATOM      1  NE  ARG A   1      19.842  22.536  -6.894  0.00  0.00    -0.265 N 
ATOM      2  HE  ARG A   1      20.191  22.982  -6.022  0.00  0.00    +0.259 HD
ATOM      3  CZ  ARG A   1      18.779  21.730  -6.802  0.00  0.00    +0.342 C 
ATOM      4  NH2 ARG A   1      18.181  21.534  -5.633  0.00  0.00    -0.292 N 
ATOM      5 HH21 ARG A   1      18.539  22.009  -4.780  0.00  0.00    +0.255 HD
ATOM      6 HH22 ARG A   1      17.355  20.905  -5.570  0.00  0.00    +0.255 HD
ATOM      7  NH1 ARG A   1      18.296  21.117  -7.874  0.00  0.00    -0.292 N 
ATOM      8 HH11 ARG A   1      17.469  20.493  -7.788  0.00  0.00    +0.255 HD
ATOM      9 HH12 ARG A   1      18.745  21.260  -8.801  0.00  0.00    +0.255 HD
ENDROOT
BRANCH   1  10
ATOM     10  CD  ARG A   1      20.546  22.831  -8.140  0.00  0.00    +0.174 C 
BRANCH  10  11
ATOM     11  CG  ARG A   1      21.746  23.762  -7.963  0.00  0.00    +0.045 C 
BRANCH  11  12
ATOM     12  CB  ARG A   1      21.345  25.194  -7.547  0.00  0.00    +0.029 C 
BRANCH  12  13
ATOM     13  CA  ARG A   1      22.468  26.227  -7.715  0.00  0.00    +0.133 C 
BRANCH  13  14
ATOM     14  N   ARG A   1      22.917  26.246  -9.097  0.00  0.00    -0.239 NA
ATOM     15  H   ARG A   1      23.676  25.600  -9.395  0.00  0.00    +0.142 HD
ENDBRANCH  13  14
BRANCH  13  16
ATOM     16  C   ARG A   1      23.637  25.897  -6.803  0.00  0.00    +0.224 C 
ATOM     17  O   ARG A   1      24.471  25.059  -7.140  0.00  0.00    -0.287 OA
ENDBRANCH  13  16
ENDBRANCH  12  13
ENDBRANCH  11  12
ENDBRANCH  10  11
ENDBRANCH   1  10
TORSDOF 6
REMARK  Name = ../refined-set-2016/3ouj/3ouj_pocket.pdb
REMARK  166 active torsions:
REMARK  status: ('A' for Active; 'I' for Inactive)
REMARK    1  A    between atoms: _1  and  _3
REMARK    2  A    between atoms: _3  and  _4
REMARK    3  A    between atoms: _3  and  _6
REMARK    4  A    between atoms: _6  and  _7
REMARK    5  A    between atoms: _9  and  _11
REMARK    6  A    between atoms: _11  and  _12
REMARK    7  A    between atoms: _11  and  _14
REMARK    8  A    between atoms: _14  and  _15
REMARK    9  A    between atoms: _15  and  _16
REMARK   10  A    between atoms: _16  and  _17
REMARK   11  A    between atoms: _26  and  _28
REMARK   12  A    between atoms: _28  and  _29
REMARK   13  A    between atoms: _28  and  _31
REMARK   14  A    between atoms: _31  and  _32
REMARK   15  A    between atoms: _35  and  _37
REMARK   16  A    between atoms: _37  and  _38
REMARK   17  A    between atoms: _37  and  _40
REMARK   18  A    between atoms: _40  and  _41
REMARK   19  A    between atoms: _44  and  _46
REMARK   20  A    between atoms: _46  and  _47
REMARK   21  A    between atoms: _46  and  _49
REMARK   22  A    between atoms: _49  and  _50
REMARK   23  A    between atoms: _50  and  _51
REMARK   24  A    between atoms: _53  and  _55
REMARK   25  A    between atoms: _55  and  _56
REMARK   26  A    between atoms: _59  and  _61
REMARK   27  A    between atoms: _61  and  _62
REMARK   28  A    between atoms: _61  and  _64
REMARK   29  A    between atoms: _66  and  _68
REMARK   30  A    between atoms: _68  and  _69
REMARK   31  A    between atoms: _68  and  _71
REMARK   32  A    between atoms: _71  and  _72
REMARK   33  A    between atoms: _77  and  _78
REMARK   34  A    between atoms: _80  and  _82
REMARK   35  A    between atoms: _82  and  _83
REMARK   36  A    between atoms: _85  and  _87
REMARK   37  A    between atoms: _87  and  _88
REMARK   38  A    between atoms: _87  and  _90
REMARK   39  A    between atoms: _90  and  _91
REMARK   40  A    between atoms: _96  and  _97
REMARK   41  A    between atoms: _99  and  _101
REMARK   42  A    between atoms: _101  and  _102
REMARK   43  A    between atoms: _101  and  _104
REMARK   44  A    between atoms: _107  and  _109
REMARK   45  A    between atoms: _120  and  _123
REMARK   46  A    between atoms: _128  and  _129
REMARK   47  A    between atoms: _135  and  _137
REMARK   48  A    between atoms: _137  and  _138
REMARK   49  A    between atoms: _137  and  _140
REMARK   50  A    between atoms: _140  and  _141
REMARK   51  A    between atoms: _141  and  _142
REMARK   52  A    between atoms: _142  and  _143
REMARK   53  A    between atoms: _152  and  _154
REMARK   54  A    between atoms: _154  and  _155
REMARK   55  A    between atoms: _154  and  _157
REMARK   56  A    between atoms: _157  and  _158
REMARK   57  A    between atoms: _161  and  _163
REMARK   58  A    between atoms: _163  and  _164
REMARK   59  A    between atoms: _163  and  _166
REMARK   60  A    between atoms: _166  and  _167
REMARK   61  A    between atoms: _170  and  _172
REMARK   62  A    between atoms: _172  and  _173
REMARK   63  A    between atoms: _172  and  _175
REMARK   64  A    between atoms: _175  and  _176
REMARK   65  A    between atoms: _181  and  _182
REMARK   66  A    between atoms: _184  and  _186
REMARK   67  A    between atoms: _186  and  _187
REMARK   68  A    between atoms: _186  and  _189
REMARK   69  A    between atoms: _189  and  _190
REMARK   70  A    between atoms: _195  and  _196
REMARK   71  A    between atoms: _198  and  _200
REMARK   72  A    between atoms: _200  and  _201
REMARK   73  A    between atoms: _200  and  _203
REMARK   74  A    between atoms: _203  and  _204
REMARK   75  A    between atoms: _209  and  _211
REMARK   76  A    between atoms: _211  and  _212
REMARK   77  A    between atoms: _214  and  _216
REMARK   78  A    between atoms: _216  and  _217
REMARK   79  A    between atoms: _216  and  _219
REMARK   80  A    between atoms: _219  and  _220
REMARK   81  A    between atoms: _223  and  _225
REMARK   82  A    between atoms: _225  and  _226
REMARK   83  A    between atoms: _225  and  _228
REMARK   84  A    between atoms: _228  and  _229
REMARK   85  A    between atoms: _232  and  _234
REMARK   86  A    between atoms: _234  and  _235
REMARK   87  A    between atoms: _234  and  _237
REMARK   88  A    between atoms: _237  and  _238
REMARK   89  A    between atoms: _238  and  _239
REMARK   90  A    between atoms: _239  and  _240
REMARK   91  A    between atoms: _249  and  _251
REMARK   92  A    between atoms: _251  and  _252
REMARK   93  A    between atoms: _251  and  _254
REMARK   94  A    between atoms: _254  and  _255
REMARK   95  A    between atoms: _258  and  _260
REMARK   96  A    between atoms: _260  and  _261
REMARK   97  A    between atoms: _260  and  _263
REMARK   98  A    between atoms: _263  and  _264
REMARK   99  A    between atoms: _267  and  _269
REMARK  100  A    between atoms: _269  and  _270
REMARK  101  A    between atoms: _269  and  _272
REMARK  102  A    between atoms: _272  and  _273
REMARK  103  A    between atoms: _273  and  _274
REMARK  104  A    between atoms: _278  and  _279
REMARK  105  A    between atoms: _284  and  _286
REMARK  106  A    between atoms: _286  and  _287
REMARK  107  A    between atoms: _286  and  _289
REMARK  108  A    between atoms: _289  and  _290
REMARK  109  A    between atoms: _293  and  _295
REMARK  110  A    between atoms: _295  and  _296
REMARK  111  A    between atoms: _295  and  _298
REMARK  112  A    between atoms: _298  and  _299
REMARK  113  A    between atoms: _305  and  _307
REMARK  114  A    between atoms: _307  and  _308
REMARK  115  A    between atoms: _307  and  _310
REMARK  116  A    between atoms: _310  and  _311
REMARK  117  A    between atoms: _316  and  _318
REMARK  118  A    between atoms: _318  and  _319
REMARK  119  A    between atoms: _318  and  _321
REMARK  120  A    between atoms: _321  and  _322
REMARK  121  A    between atoms: _326  and  FE_441
REMARK  122  A    between atoms: _327  and  _329
REMARK  123  A    between atoms: _329  and  _330
REMARK  124  A    between atoms: _329  and  _332
REMARK  125  A    between atoms: _332  and  _333
REMARK  126  A    between atoms: _333  and  _334
REMARK  127  A    between atoms: _337  and  _339
REMARK  128  A    between atoms: _339  and  _340
REMARK  129  A    between atoms: _339  and  _342
REMARK  130  A    between atoms: _345  and  _347
REMARK  131  A    between atoms: _347  and  _348
REMARK  132  A    between atoms: _347  and  _350
REMARK  133  A    between atoms: _350  and  _351
REMARK  134  A    between atoms: _351  and  _352
REMARK  135  A    between atoms: _357  and  _359
REMARK  136  A    between atoms: _359  and  _360
REMARK  137  A    between atoms: _359  and  _362
REMARK  138  A    between atoms: _362  and  _363
REMARK  139  A    between atoms: _363  and  _364
REMARK  140  A    between atoms: _364  and  _365
REMARK  141  A    between atoms: _374  and  _376
REMARK  142  A    between atoms: _376  and  _377
REMARK  143  A    between atoms: _376  and  _379
REMARK  144  A    between atoms: _379  and  _380
REMARK  145  A    between atoms: _385  and  _386
REMARK  146  A    between atoms: _388  and  _390
REMARK  147  A    between atoms: _390  and  _391
REMARK  148  A    between atoms: _394  and  _396
REMARK  149  A    between atoms: _396  and  _397
REMARK  150  A    between atoms: _396  and  _399
REMARK  151  A    between atoms: _399  and  _400
REMARK  152  A    between atoms: _403  and  _405
REMARK  153  A    between atoms: _405  and  _406
REMARK  154  A    between atoms: _405  and  _408
REMARK  155  A    between atoms: _408  and  _409
REMARK  156  A    between atoms: _412  and  _414
REMARK  157  A    between atoms: _414  and  _415
REMARK  158  A    between atoms: _414  and  _417
REMARK  159  A    between atoms: _417  and  _418
REMARK  160  A    between atoms: _428  and  _430
REMARK  161  A    between atoms: _430  and  _431
REMARK  162  A    between atoms: _430  and  _433
REMARK  163  A    between atoms: _433  and  _434
REMARK  164  A    between atoms: _434  and  _435
REMARK  165  A    between atoms: _435  and  _436
REMARK  166  A    between atoms: _436  and  _437
REMARK                            x       y       z     vdW  Elec       q    Type
REMARK                         _______ _______ _______ _____ _____    ______ ____
ROOT
ATOM      1  CA  ASP A   1      22.593  24.153  -2.409  0.00  0.00    +0.144 C 
ENDROOT
BRANCH   1   2
ATOM      2  N   ASP A   1      23.149  24.888  -3.557  0.00  0.00    -0.239 NA
ATOM      3  H   ASP A   1      22.621  24.901  -4.453  0.00  0.00    +0.142 HD
ENDBRANCH   1   2
BRANCH   1   4
ATOM      4  C   ASP A   1      23.076  22.705  -2.358  0.00  0.00    +0.225 C 
ATOM      5  O   ASP A   1      23.533  22.175  -3.350  0.00  0.00    -0.287 OA
ENDBRANCH   1   4
BRANCH   1   6
ATOM      6  CB  ASP A   1      21.056  24.192  -2.423  0.00  0.00    +0.139 C 
BRANCH   6   7
ATOM      7  CG  ASP A   1      20.448  23.548  -3.665  0.00  0.00    +0.367 C 
ATOM      8  OD2 ASP A   1      19.270  23.151  -3.614  0.00  0.00    -0.246 OA
ATOM      9  OD1 ASP A   1      21.132  23.437  -4.704  0.00  0.00    -0.246 OA
ENDBRANCH   6   7
ENDBRANCH   1   6
TORSDOF 4
REMARK  Name = ../refined-set-2016/3ouj/3ouj_pocket.pdb
REMARK  166 active torsions:
REMARK  status: ('A' for Active; 'I' for Inactive)
REMARK    1  A    between atoms: _1  and  _3
REMARK    2  A    between atoms: _3  and  _4
REMARK    3  A    between atoms: _3  and  _6
REMARK    4  A    between atoms: _6  and  _7
REMARK    5  A    between atoms: _9  and  _11
REMARK    6  A    between atoms: _11  and  _12
REMARK    7  A    between atoms: _11  and  _14
REMARK    8  A    between atoms: _14  and  _15
REMARK    9  A    between atoms: _15  and  _16
REMARK   10  A    between atoms: _16  and  _17
REMARK   11  A    between atoms: _26  and  _28
REMARK   12  A    between atoms: _28  and  _29
REMARK   13  A    between atoms: _28  and  _31
REMARK   14  A    between atoms: _31  and  _32
REMARK   15  A    between atoms: _35  and  _37
REMARK   16  A    between atoms: _37  and  _38
REMARK   17  A    between atoms: _37  and  _40
REMARK   18  A    between atoms: _40  and  _41
REMARK   19  A    between atoms: _44  and  _46
REMARK   20  A    between atoms: _46  and  _47
REMARK   21  A    between atoms: _46  and  _49
REMARK   22  A    between atoms: _49  and  _50
REMARK   23  A    between atoms: _50  and  _51
REMARK   24  A    between atoms: _53  and  _55
REMARK   25  A    between atoms: _55  and  _56
REMARK   26  A    between atoms: _59  and  _61
REMARK   27  A    between atoms: _61  and  _62
REMARK   28  A    between atoms: _61  and  _64
REMARK   29  A    between atoms: _66  and  _68
REMARK   30  A    between atoms: _68  and  _69
REMARK   31  A    between atoms: _68  and  _71
REMARK   32  A    between atoms: _71  and  _72
REMARK   33  A    between atoms: _77  and  _78
REMARK   34  A    between atoms: _80  and  _82
REMARK   35  A    between atoms: _82  and  _83
REMARK   36  A    between atoms: _85  and  _87
REMARK   37  A    between atoms: _87  and  _88
REMARK   38  A    between atoms: _87  and  _90
REMARK   39  A    between atoms: _90  and  _91
REMARK   40  A    between atoms: _96  and  _97
REMARK   41  A    between atoms: _99  and  _101
REMARK   42  A    between atoms: _101  and  _102
REMARK   43  A    between atoms: _101  and  _104
REMARK   44  A    between atoms: _107  and  _109
REMARK   45  A    between atoms: _120  and  _123
REMARK   46  A    between atoms: _128  and  _129
REMARK   47  A    between atoms: _135  and  _137
REMARK   48  A    between atoms: _137  and  _138
REMARK   49  A    between atoms: _137  and  _140
REMARK   50  A    between atoms: _140  and  _141
REMARK   51  A    between atoms: _141  and  _142
REMARK   52  A    between atoms: _142  and  _143
REMARK   53  A    between atoms: _152  and  _154
REMARK   54  A    between atoms: _154  and  _155
REMARK   55  A    between atoms: _154  and  _157
REMARK   56  A    between atoms: _157  and  _158
REMARK   57  A    between atoms: _161  and  _163
REMARK   58  A    between atoms: _163  and  _164
REMARK   59  A    between atoms: _163  and  _166
REMARK   60  A    between atoms: _166  and  _167
REMARK   61  A    between atoms: _170  and  _172
REMARK   62  A    between atoms: _172  and  _173
REMARK   63  A    between atoms: _172  and  _175
REMARK   64  A    between atoms: _175  and  _176
REMARK   65  A    between atoms: _181  and  _182
REMARK   66  A    between atoms: _184  and  _186
REMARK   67  A    between atoms: _186  and  _187
REMARK   68  A    between atoms: _186  and  _189
REMARK   69  A    between atoms: _189  and  _190
REMARK   70  A    between atoms: _195  and  _196
REMARK   71  A    between atoms: _198  and  _200
REMARK   72  A    between atoms: _200  and  _201
REMARK   73  A    between atoms: _200  and  _203
REMARK   74  A    between atoms: _203  and  _204
REMARK   75  A    between atoms: _209  and  _211
REMARK   76  A    between atoms: _211  and  _212
REMARK   77  A    between atoms: _214  and  _216
REMARK   78  A    between atoms: _216  and  _217
REMARK   79  A    between atoms: _216  and  _219
REMARK   80  A    between atoms: _219  and  _220
REMARK   81  A    between atoms: _223  and  _225
REMARK   82  A    between atoms: _225  and  _226
REMARK   83  A    between atoms: _225  and  _228
REMARK   84  A    between atoms: _228  and  _229
REMARK   85  A    between atoms: _232  and  _234
REMARK   86  A    between atoms: _234  and  _235
REMARK   87  A    between atoms: _234  and  _237
REMARK   88  A    between atoms: _237  and  _238
REMARK   89  A    between atoms: _238  and  _239
REMARK   90  A    between atoms: _239  and  _240
REMARK   91  A    between atoms: _249  and  _251
REMARK   92  A    between atoms: _251  and  _252
REMARK   93  A    between atoms: _251  and  _254
REMARK   94  A    between atoms: _254  and  _255
REMARK   95  A    between atoms: _258  and  _260
REMARK   96  A    between atoms: _260  and  _261
REMARK   97  A    between atoms: _260  and  _263
REMARK   98  A    between atoms: _263  and  _264
REMARK   99  A    between atoms: _267  and  _269
REMARK  100  A    between atoms: _269  and  _270
REMARK  101  A    between atoms: _269  and  _272
REMARK  102  A    between atoms: _272  and  _273
REMARK  103  A    between atoms: _273  and  _274
REMARK  104  A    between atoms: _278  and  _279
REMARK  105  A    between atoms: _284  and  _286
REMARK  106  A    between atoms: _286  and  _287
REMARK  107  A    between atoms: _286  and  _289
REMARK  108  A    between atoms: _289  and  _290
REMARK  109  A    between atoms: _293  and  _295
REMARK  110  A    between atoms: _295  and  _296
REMARK  111  A    between atoms: _295  and  _298
REMARK  112  A    between atoms: _298  and  _299
REMARK  113  A    between atoms: _305  and  _307
REMARK  114  A    between atoms: _307  and  _308
REMARK  115  A    between atoms: _307  and  _310
REMARK  116  A    between atoms: _310  and  _311
REMARK  117  A    between atoms: _316  and  _318
REMARK  118  A    between atoms: _318  and  _319
REMARK  119  A    between atoms: _318  and  _321
REMARK  120  A    between atoms: _321  and  _322
REMARK  121  A    between atoms: _326  and  FE_441
REMARK  122  A    between atoms: _327  and  _329
REMARK  123  A    between atoms: _329  and  _330
REMARK  124  A    between atoms: _329  and  _332
REMARK  125  A    between atoms: _332  and  _333
REMARK  126  A    between atoms: _333  and  _334
REMARK  127  A    between atoms: _337  and  _339
REMARK  128  A    between atoms: _339  and  _340
REMARK  129  A    between atoms: _339  and  _342
REMARK  130  A    between atoms: _345  and  _347
REMARK  131  A    between atoms: _347  and  _348
REMARK  132  A    between atoms: _347  and  _350
REMARK  133  A    between atoms: _350  and  _351
REMARK  134  A    between atoms: _351  and  _352
REMARK  135  A    between atoms: _357  and  _359
REMARK  136  A    between atoms: _359  and  _360
REMARK  137  A    between atoms: _359  and  _362
REMARK  138  A    between atoms: _362  and  _363
REMARK  139  A    between atoms: _363  and  _364
REMARK  140  A    between atoms: _364  and  _365
REMARK  141  A    between atoms: _374  and  _376
REMARK  142  A    between atoms: _376  and  _377
REMARK  143  A    between atoms: _376  and  _379
REMARK  144  A    between atoms: _379  and  _380
REMARK  145  A    between atoms: _385  and  _386
REMARK  146  A    between atoms: _388  and  _390
REMARK  147  A    between atoms: _390  and  _391
REMARK  148  A    between atoms: _394  and  _396
REMARK  149  A    between atoms: _396  and  _397
REMARK  150  A    between atoms: _396  and  _399
REMARK  151  A    between atoms: _399  and  _400
REMARK  152  A    between atoms: _403  and  _405
REMARK  153  A    between atoms: _405  and  _406
REMARK  154  A    between atoms: _405  and  _408
REMARK  155  A    between atoms: _408  and  _409
REMARK  156  A    between atoms: _412  and  _414
REMARK  157  A    between atoms: _414  and  _415
REMARK  158  A    between atoms: _414  and  _417
REMARK  159  A    between atoms: _417  and  _418
REMARK  160  A    between atoms: _428  and  _430
REMARK  161  A    between atoms: _430  and  _431
REMARK  162  A    between atoms: _430  and  _433
REMARK  163  A    between atoms: _433  and  _434
REMARK  164  A    between atoms: _434  and  _435
REMARK  165  A    between atoms: _435  and  _436
REMARK  166  A    between atoms: _436  and  _437
REMARK                            x       y       z     vdW  Elec       q    Type
REMARK                         _______ _______ _______ _____ _____    ______ ____
ROOT
ATOM      1  CA  ILE A   1      20.335  18.153  -0.718  0.00  0.00    +0.133 C 
ENDROOT
BRANCH   1   2
ATOM      2  N   ILE A   1      21.625  18.779  -0.966  0.00  0.00    -0.239 NA
ATOM      3  H   ILE A   1      22.392  18.222  -1.395  0.00  0.00    +0.142 HD
ENDBRANCH   1   2
BRANCH   1   4
ATOM      4  C   ILE A   1      20.352  16.666  -0.339  0.00  0.00    +0.224 C 
ATOM      5  O   ILE A   1      21.326  15.933  -0.564  0.00  0.00    -0.287 OA
ENDBRANCH   1   4
BRANCH   1   6
ATOM      6  CB  ILE A   1      19.404  18.326  -1.950  0.00  0.00    +0.023 C 
ATOM      7  CG2 ILE A   1      19.267  19.812  -2.319  0.00  0.00    +0.002 C 
BRANCH   6   8
ATOM      8  CG1 ILE A   1      19.916  17.513  -3.149  0.00  0.00    +0.002 C 
ATOM      9  CD1 ILE A   1      18.816  16.915  -3.972  0.00  0.00    +0.000 C 
ENDBRANCH   6   8
ENDBRANCH   1   6
TORSDOF 4
REMARK  Name = ../refined-set-2016/3ouj/3ouj_pocket.pdb
REMARK  166 active torsions:
REMARK  status: ('A' for Active; 'I' for Inactive)
REMARK    1  A    between atoms: _1  and  _3
REMARK    2  A    between atoms: _3  and  _4
REMARK    3  A    between atoms: _3  and  _6
REMARK    4  A    between atoms: _6  and  _7
REMARK    5  A    between atoms: _9  and  _11
REMARK    6  A    between atoms: _11  and  _12
REMARK    7  A    between atoms: _11  and  _14
REMARK    8  A    between atoms: _14  and  _15
REMARK    9  A    between atoms: _15  and  _16
REMARK   10  A    between atoms: _16  and  _17
REMARK   11  A    between atoms: _26  and  _28
REMARK   12  A    between atoms: _28  and  _29
REMARK   13  A    between atoms: _28  and  _31
REMARK   14  A    between atoms: _31  and  _32
REMARK   15  A    between atoms: _35  and  _37
REMARK   16  A    between atoms: _37  and  _38
REMARK   17  A    between atoms: _37  and  _40
REMARK   18  A    between atoms: _40  and  _41
REMARK   19  A    between atoms: _44  and  _46
REMARK   20  A    between atoms: _46  and  _47
REMARK   21  A    between atoms: _46  and  _49
REMARK   22  A    between atoms: _49  and  _50
REMARK   23  A    between atoms: _50  and  _51
REMARK   24  A    between atoms: _53  and  _55
REMARK   25  A    between atoms: _55  and  _56
REMARK   26  A    between atoms: _59  and  _61
REMARK   27  A    between atoms: _61  and  _62
REMARK   28  A    between atoms: _61  and  _64
REMARK   29  A    between atoms: _66  and  _68
REMARK   30  A    between atoms: _68  and  _69
REMARK   31  A    between atoms: _68  and  _71
REMARK   32  A    between atoms: _71  and  _72
REMARK   33  A    between atoms: _77  and  _78
REMARK   34  A    between atoms: _80  and  _82
REMARK   35  A    between atoms: _82  and  _83
REMARK   36  A    between atoms: _85  and  _87
REMARK   37  A    between atoms: _87  and  _88
REMARK   38  A    between atoms: _87  and  _90
REMARK   39  A    between atoms: _90  and  _91
REMARK   40  A    between atoms: _96  and  _97
REMARK   41  A    between atoms: _99  and  _101
REMARK   42  A    between atoms: _101  and  _102
REMARK   43  A    between atoms: _101  and  _104
REMARK   44  A    between atoms: _107  and  _109
REMARK   45  A    between atoms: _120  and  _123
REMARK   46  A    between atoms: _128  and  _129
REMARK   47  A    between atoms: _135  and  _137
REMARK   48  A    between atoms: _137  and  _138
REMARK   49  A    between atoms: _137  and  _140
REMARK   50  A    between atoms: _140  and  _141
REMARK   51  A    between atoms: _141  and  _142
REMARK   52  A    between atoms: _142  and  _143
REMARK   53  A    between atoms: _152  and  _154
REMARK   54  A    between atoms: _154  and  _155
REMARK   55  A    between atoms: _154  and  _157
REMARK   56  A    between atoms: _157  and  _158
REMARK   57  A    between atoms: _161  and  _163
REMARK   58  A    between atoms: _163  and  _164
REMARK   59  A    between atoms: _163  and  _166
REMARK   60  A    between atoms: _166  and  _167
REMARK   61  A    between atoms: _170  and  _172
REMARK   62  A    between atoms: _172  and  _173
REMARK   63  A    between atoms: _172  and  _175
REMARK   64  A    between atoms: _175  and  _176
REMARK   65  A    between atoms: _181  and  _182
REMARK   66  A    between atoms: _184  and  _186
REMARK   67  A    between atoms: _186  and  _187
REMARK   68  A    between atoms: _186  and  _189
REMARK   69  A    between atoms: _189  and  _190
REMARK   70  A    between atoms: _195  and  _196
REMARK   71  A    between atoms: _198  and  _200
REMARK   72  A    between atoms: _200  and  _201
REMARK   73  A    between atoms: _200  and  _203
REMARK   74  A    between atoms: _203  and  _204
REMARK   75  A    between atoms: _209  and  _211
REMARK   76  A    between atoms: _211  and  _212
REMARK   77  A    between atoms: _214  and  _216
REMARK   78  A    between atoms: _216  and  _217
REMARK   79  A    between atoms: _216  and  _219
REMARK   80  A    between atoms: _219  and  _220
REMARK   81  A    between atoms: _223  and  _225
REMARK   82  A    between atoms: _225  and  _226
REMARK   83  A    between atoms: _225  and  _228
REMARK   84  A    between atoms: _228  and  _229
REMARK   85  A    between atoms: _232  and  _234
REMARK   86  A    between atoms: _234  and  _235
REMARK   87  A    between atoms: _234  and  _237
REMARK   88  A    between atoms: _237  and  _238
REMARK   89  A    between atoms: _238  and  _239
REMARK   90  A    between atoms: _239  and  _240
REMARK   91  A    between atoms: _249  and  _251
REMARK   92  A    between atoms: _251  and  _252
REMARK   93  A    between atoms: _251  and  _254
REMARK   94  A    between atoms: _254  and  _255
REMARK   95  A    between atoms: _258  and  _260
REMARK   96  A    between atoms: _260  and  _261
REMARK   97  A    between atoms: _260  and  _263
REMARK   98  A    between atoms: _263  and  _264
REMARK   99  A    between atoms: _267  and  _269
REMARK  100  A    between atoms: _269  and  _270
REMARK  101  A    between atoms: _269  and  _272
REMARK  102  A    between atoms: _272  and  _273
REMARK  103  A    between atoms: _273  and  _274
REMARK  104  A    between atoms: _278  and  _279
REMARK  105  A    between atoms: _284  and  _286
REMARK  106  A    between atoms: _286  and  _287
REMARK  107  A    between atoms: _286  and  _289
REMARK  108  A    between atoms: _289  and  _290
REMARK  109  A    between atoms: _293  and  _295
REMARK  110  A    between atoms: _295  and  _296
REMARK  111  A    between atoms: _295  and  _298
REMARK  112  A    between atoms: _298  and  _299
REMARK  113  A    between atoms: _305  and  _307
REMARK  114  A    between atoms: _307  and  _308
REMARK  115  A    between atoms: _307  and  _310
REMARK  116  A    between atoms: _310  and  _311
REMARK  117  A    between atoms: _316  and  _318
REMARK  118  A    between atoms: _318  and  _319
REMARK  119  A    between atoms: _318  and  _321
REMARK  120  A    between atoms: _321  and  _322
REMARK  121  A    between atoms: _326  and  FE_441
REMARK  122  A    between atoms: _327  and  _329
REMARK  123  A    between atoms: _329  and  _330
REMARK  124  A    between atoms: _329  and  _332
REMARK  125  A    between atoms: _332  and  _333
REMARK  126  A    between atoms: _333  and  _334
REMARK  127  A    between atoms: _337  and  _339
REMARK  128  A    between atoms: _339  and  _340
REMARK  129  A    between atoms: _339  and  _342
REMARK  130  A    between atoms: _345  and  _347
REMARK  131  A    between atoms: _347  and  _348
REMARK  132  A    between atoms: _347  and  _350
REMARK  133  A    between atoms: _350  and  _351
REMARK  134  A    between atoms: _351  and  _352
REMARK  135  A    between atoms: _357  and  _359
REMARK  136  A    between atoms: _359  and  _360
REMARK  137  A    between atoms: _359  and  _362
REMARK  138  A    between atoms: _362  and  _363
REMARK  139  A    between atoms: _363  and  _364
REMARK  140  A    between atoms: _364  and  _365
REMARK  141  A    between atoms: _374  and  _376
REMARK  142  A    between atoms: _376  and  _377
REMARK  143  A    between atoms: _376  and  _379
REMARK  144  A    between atoms: _379  and  _380
REMARK  145  A    between atoms: _385  and  _386
REMARK  146  A    between atoms: _388  and  _390
REMARK  147  A    between atoms: _390  and  _391
REMARK  148  A    between atoms: _394  and  _396
REMARK  149  A    between atoms: _396  and  _397
REMARK  150  A    between atoms: _396  and  _399
REMARK  151  A    between atoms: _399  and  _400
REMARK  152  A    between atoms: _403  and  _405
REMARK  153  A    between atoms: _405  and  _406
REMARK  154  A    between atoms: _405  and  _408
REMARK  155  A    between atoms: _408  and  _409
REMARK  156  A    between atoms: _412  and  _414
REMARK  157  A    between atoms: _414  and  _415
REMARK  158  A    between atoms: _414  and  _417
REMARK  159  A    between atoms: _417  and  _418
REMARK  160  A    between atoms: _428  and  _430
REMARK  161  A    between atoms: _430  and  _431
REMARK  162  A    between atoms: _430  and  _433
REMARK  163  A    between atoms: _433  and  _434
REMARK  164  A    between atoms: _434  and  _435
REMARK  165  A    between atoms: _435  and  _436
REMARK  166  A    between atoms: _436  and  _437
REMARK                            x       y       z     vdW  Elec       q    Type
REMARK                         _______ _______ _______ _____ _____    ______ ____
ROOT
ATOM      1  CA  MET A   1      13.776  17.289  -0.505  0.00  0.00    +0.134 C 
ENDROOT
BRANCH   1   2
ATOM      2  N   MET A   1      12.436  16.810  -0.203  0.00  0.00    -0.239 NA
ATOM      3  H   MET A   1      11.620  17.380  -0.503  0.00  0.00    +0.142 HD
ENDBRANCH   1   2
BRANCH   1   4
ATOM      4  C   MET A   1      14.230  18.299   0.549  0.00  0.00    +0.224 C 
ATOM      5  O   MET A   1      13.820  19.461   0.542  0.00  0.00    -0.287 OA
ENDBRANCH   1   4
BRANCH   1   6
ATOM      6  CB  MET A   1      13.819  17.926  -1.887  0.00  0.00    +0.037 C 
BRANCH   6   7
ATOM      7  CG  MET A   1      15.225  18.152  -2.420  0.00  0.00    +0.059 C 
BRANCH   7   8
ATOM      8  SD  MET A   1      15.236  19.183  -3.886  0.00  0.00    -0.139 S 
ATOM      9  CE  MET A   1      15.291  20.793  -3.087  0.00  0.00    +0.069 C 
ENDBRANCH   7   8
ENDBRANCH   6   7
ENDBRANCH   1   6
TORSDOF 5
REMARK  Name = ../refined-set-2016/3ouj/3ouj_pocket.pdb
REMARK  166 active torsions:
REMARK  status: ('A' for Active; 'I' for Inactive)
REMARK    1  A    between atoms: _1  and  _3
REMARK    2  A    between atoms: _3  and  _4
REMARK    3  A    between atoms: _3  and  _6
REMARK    4  A    between atoms: _6  and  _7
REMARK    5  A    between atoms: _9  and  _11
REMARK    6  A    between atoms: _11  and  _12
REMARK    7  A    between atoms: _11  and  _14
REMARK    8  A    between atoms: _14  and  _15
REMARK    9  A    between atoms: _15  and  _16
REMARK   10  A    between atoms: _16  and  _17
REMARK   11  A    between atoms: _26  and  _28
REMARK   12  A    between atoms: _28  and  _29
REMARK   13  A    between atoms: _28  and  _31
REMARK   14  A    between atoms: _31  and  _32
REMARK   15  A    between atoms: _35  and  _37
REMARK   16  A    between atoms: _37  and  _38
REMARK   17  A    between atoms: _37  and  _40
REMARK   18  A    between atoms: _40  and  _41
REMARK   19  A    between atoms: _44  and  _46
REMARK   20  A    between atoms: _46  and  _47
REMARK   21  A    between atoms: _46  and  _49
REMARK   22  A    between atoms: _49  and  _50
REMARK   23  A    between atoms: _50  and  _51
REMARK   24  A    between atoms: _53  and  _55
REMARK   25  A    between atoms: _55  and  _56
REMARK   26  A    between atoms: _59  and  _61
REMARK   27  A    between atoms: _61  and  _62
REMARK   28  A    between atoms: _61  and  _64
REMARK   29  A    between atoms: _66  and  _68
REMARK   30  A    between atoms: _68  and  _69
REMARK   31  A    between atoms: _68  and  _71
REMARK   32  A    between atoms: _71  and  _72
REMARK   33  A    between atoms: _77  and  _78
REMARK   34  A    between atoms: _80  and  _82
REMARK   35  A    between atoms: _82  and  _83
REMARK   36  A    between atoms: _85  and  _87
REMARK   37  A    between atoms: _87  and  _88
REMARK   38  A    between atoms: _87  and  _90
REMARK   39  A    between atoms: _90  and  _91
REMARK   40  A    between atoms: _96  and  _97
REMARK   41  A    between atoms: _99  and  _101
REMARK   42  A    between atoms: _101  and  _102
REMARK   43  A    between atoms: _101  and  _104
REMARK   44  A    between atoms: _107  and  _109
REMARK   45  A    between atoms: _120  and  _123
REMARK   46  A    between atoms: _128  and  _129
REMARK   47  A    between atoms: _135  and  _137
REMARK   48  A    between atoms: _137  and  _138
REMARK   49  A    between atoms: _137  and  _140
REMARK   50  A    between atoms: _140  and  _141
REMARK   51  A    between atoms: _141  and  _142
REMARK   52  A    between atoms: _142  and  _143
REMARK   53  A    between atoms: _152  and  _154
REMARK   54  A    between atoms: _154  and  _155
REMARK   55  A    between atoms: _154  and  _157
REMARK   56  A    between atoms: _157  and  _158
REMARK   57  A    between atoms: _161  and  _163
REMARK   58  A    between atoms: _163  and  _164
REMARK   59  A    between atoms: _163  and  _166
REMARK   60  A    between atoms: _166  and  _167
REMARK   61  A    between atoms: _170  and  _172
REMARK   62  A    between atoms: _172  and  _173
REMARK   63  A    between atoms: _172  and  _175
REMARK   64  A    between atoms: _175  and  _176
REMARK   65  A    between atoms: _181  and  _182
REMARK   66  A    between atoms: _184  and  _186
REMARK   67  A    between atoms: _186  and  _187
REMARK   68  A    between atoms: _186  and  _189
REMARK   69  A    between atoms: _189  and  _190
REMARK   70  A    between atoms: _195  and  _196
REMARK   71  A    between atoms: _198  and  _200
REMARK   72  A    between atoms: _200  and  _201
REMARK   73  A    between atoms: _200  and  _203
REMARK   74  A    between atoms: _203  and  _204
REMARK   75  A    between atoms: _209  and  _211
REMARK   76  A    between atoms: _211  and  _212
REMARK   77  A    between atoms: _214  and  _216
REMARK   78  A    between atoms: _216  and  _217
REMARK   79  A    between atoms: _216  and  _219
REMARK   80  A    between atoms: _219  and  _220
REMARK   81  A    between atoms: _223  and  _225
REMARK   82  A    between atoms: _225  and  _226
REMARK   83  A    between atoms: _225  and  _228
REMARK   84  A    between atoms: _228  and  _229
REMARK   85  A    between atoms: _232  and  _234
REMARK   86  A    between atoms: _234  and  _235
REMARK   87  A    between atoms: _234  and  _237
REMARK   88  A    between atoms: _237  and  _238
REMARK   89  A    between atoms: _238  and  _239
REMARK   90  A    between atoms: _239  and  _240
REMARK   91  A    between atoms: _249  and  _251
REMARK   92  A    between atoms: _251  and  _252
REMARK   93  A    between atoms: _251  and  _254
REMARK   94  A    between atoms: _254  and  _255
REMARK   95  A    between atoms: _258  and  _260
REMARK   96  A    between atoms: _260  and  _261
REMARK   97  A    between atoms: _260  and  _263
REMARK   98  A    between atoms: _263  and  _264
REMARK   99  A    between atoms: _267  and  _269
REMARK  100  A    between atoms: _269  and  _270
REMARK  101  A    between atoms: _269  and  _272
REMARK  102  A    between atoms: _272  and  _273
REMARK  103  A    between atoms: _273  and  _274
REMARK  104  A    between atoms: _278  and  _279
REMARK  105  A    between atoms: _284  and  _286
REMARK  106  A    between atoms: _286  and  _287
REMARK  107  A    between atoms: _286  and  _289
REMARK  108  A    between atoms: _289  and  _290
REMARK  109  A    between atoms: _293  and  _295
REMARK  110  A    between atoms: _295  and  _296
REMARK  111  A    between atoms: _295  and  _298
REMARK  112  A    between atoms: _298  and  _299
REMARK  113  A    between atoms: _305  and  _307
REMARK  114  A    between atoms: _307  and  _308
REMARK  115  A    between atoms: _307  and  _310
REMARK  116  A    between atoms: _310  and  _311
REMARK  117  A    between atoms: _316  and  _318
REMARK  118  A    between atoms: _318  and  _319
REMARK  119  A    between atoms: _318  and  _321
REMARK  120  A    between atoms: _321  and  _322
REMARK  121  A    between atoms: _326  and  FE_441
REMARK  122  A    between atoms: _327  and  _329
REMARK  123  A    between atoms: _329  and  _330
REMARK  124  A    between atoms: _329  and  _332
REMARK  125  A    between atoms: _332  and  _333
REMARK  126  A    between atoms: _333  and  _334
REMARK  127  A    between atoms: _337  and  _339
REMARK  128  A    between atoms: _339  and  _340
REMARK  129  A    between atoms: _339  and  _342
REMARK  130  A    between atoms: _345  and  _347
REMARK  131  A    between atoms: _347  and  _348
REMARK  132  A    between atoms: _347  and  _350
REMARK  133  A    between atoms: _350  and  _351
REMARK  134  A    between atoms: _351  and  _352
REMARK  135  A    between atoms: _357  and  _359
REMARK  136  A    between atoms: _359  and  _360
REMARK  137  A    between atoms: _359  and  _362
REMARK  138  A    between atoms: _362  and  _363
REMARK  139  A    between atoms: _363  and  _364
REMARK  140  A    between atoms: _364  and  _365
REMARK  141  A    between atoms: _374  and  _376
REMARK  142  A    between atoms: _376  and  _377
REMARK  143  A    between atoms: _376  and  _379
REMARK  144  A    between atoms: _379  and  _380
REMARK  145  A    between atoms: _385  and  _386
REMARK  146  A    between atoms: _388  and  _390
REMARK  147  A    between atoms: _390  and  _391
REMARK  148  A    between atoms: _394  and  _396
REMARK  149  A    between atoms: _396  and  _397
REMARK  150  A    between atoms: _396  and  _399
REMARK  151  A    between atoms: _399  and  _400
REMARK  152  A    between atoms: _403  and  _405
REMARK  153  A    between atoms: _405  and  _406
REMARK  154  A    between atoms: _405  and  _408
REMARK  155  A    between atoms: _408  and  _409
REMARK  156  A    between atoms: _412  and  _414
REMARK  157  A    between atoms: _414  and  _415
REMARK  158  A    between atoms: _414  and  _417
REMARK  159  A    between atoms: _417  and  _418
REMARK  160  A    between atoms: _428  and  _430
REMARK  161  A    between atoms: _430  and  _431
REMARK  162  A    between atoms: _430  and  _433
REMARK  163  A    between atoms: _433  and  _434
REMARK  164  A    between atoms: _434  and  _435
REMARK  165  A    between atoms: _435  and  _436
REMARK  166  A    between atoms: _436  and  _437
REMARK                            x       y       z     vdW  Elec       q    Type
REMARK                         _______ _______ _______ _____ _____    ______ ____
ROOT
ATOM      1  C   CYS A   2      21.685  24.364   1.703  0.00  0.00    +0.242 C 
ATOM      2  N   TYR A   3      21.580  25.665   1.960  0.00  0.00    -0.298 N 
ATOM      3  H   TYR A   3      20.846  25.984   2.624  0.00  0.00    +0.150 HD
ATOM      4  O   CYS A   2      22.343  23.911   0.765  0.00  0.00    -0.273 OA
ENDROOT
BRANCH   1   5
ATOM      5  CA  CYS A   2      20.882  23.419   2.595  0.00  0.00    +0.160 C 
BRANCH   5   8
ATOM      6  C   ALA A   1      18.718  22.409   2.026  0.00  0.00    +0.238 C 
ATOM      7  O   ALA A   1      18.140  22.922   2.983  0.00  0.00    -0.274 OA
ATOM      8  N   CYS A   2      19.999  22.612   1.754  0.00  0.00    -0.297 N 
ATOM      9  H   CYS A   2      20.397  22.175   0.898  0.00  0.00    +0.150 HD
BRANCH   6  10
ATOM     10  CA  ALA A   1      17.981  21.466   1.068  0.00  0.00    +0.145 C 
ATOM     11  CB  ALA A   1      17.441  22.228  -0.133  0.00  0.00    +0.028 C 
BRANCH  10  12
ATOM     12  N   ALA A   1      16.906  20.711   1.742  0.00  0.00    -0.238 NA
ATOM     13  H   ALA A   1      16.138  21.227   2.216  0.00  0.00    +0.142 HD
ENDBRANCH  10  12
ENDBRANCH   6  10
ENDBRANCH   5   8
BRANCH   5  14
ATOM     14  CB  CYS A   2      21.831  22.511   3.383  0.00  0.00    +0.098 C 
ATOM     15  SG  CYS A   2      23.118  23.366   4.345  0.00  0.00    -0.080 S 
ENDBRANCH   5  14
ENDBRANCH   1   5
BRANCH   2  16
ATOM     16  CA  TYR A   3      22.459  26.670   1.344  0.00  0.00    +0.141 C 
BRANCH  16  17
ATOM     17  C   TYR A   3      23.514  27.028   2.371  0.00  0.00    +0.227 C 
ATOM     18  O   TYR A   3      23.199  27.681   3.365  0.00  0.00    -0.286 OA
ENDBRANCH  16  17
BRANCH  16  19
ATOM     19  CB  TYR A   3      21.673  27.915   0.916  0.00  0.00    +0.054 C 
BRANCH  19  20
ATOM     20  CG  TYR A   3      20.733  27.621  -0.225  0.00  0.00    -0.020 A 
ATOM     21  CD2 TYR A   3      19.493  27.031   0.005  0.00  0.00    -0.001 A 
ATOM     22  CE2 TYR A   3      18.627  26.734  -1.037  0.00  0.00    +0.036 A 
ATOM     23  CZ  TYR A   3      19.001  27.008  -2.328  0.00  0.00    +0.134 A 
ATOM     24  CE1 TYR A   3      20.226  27.577  -2.588  0.00  0.00    +0.036 A 
ATOM     25  CD1 TYR A   3      21.099  27.871  -1.531  0.00  0.00    -0.001 A 
BRANCH  23  26
ATOM     26  OH  TYR A   3      18.161  26.717  -3.369  0.00  0.00    -0.506 OA
ATOM     27  HH  TYR A   3      17.327  26.316  -3.017  0.00  0.00    +0.292 HD
ENDBRANCH  23  26
ENDBRANCH  19  20
ENDBRANCH  16  19
ENDBRANCH   2  16
TORSDOF 10
REMARK  Name = ../refined-set-2016/3ouj/3ouj_pocket.pdb
REMARK  166 active torsions:
REMARK  status: ('A' for Active; 'I' for Inactive)
REMARK    1  A    between atoms: _1  and  _3
REMARK    2  A    between atoms: _3  and  _4
REMARK    3  A    between atoms: _3  and  _6
REMARK    4  A    between atoms: _6  and  _7
REMARK    5  A    between atoms: _9  and  _11
REMARK    6  A    between atoms: _11  and  _12
REMARK    7  A    between atoms: _11  and  _14
REMARK    8  A    between atoms: _14  and  _15
REMARK    9  A    between atoms: _15  and  _16
REMARK   10  A    between atoms: _16  and  _17
REMARK   11  A    between atoms: _26  and  _28
REMARK   12  A    between atoms: _28  and  _29
REMARK   13  A    between atoms: _28  and  _31
REMARK   14  A    between atoms: _31  and  _32
REMARK   15  A    between atoms: _35  and  _37
REMARK   16  A    between atoms: _37  and  _38
REMARK   17  A    between atoms: _37  and  _40
REMARK   18  A    between atoms: _40  and  _41
REMARK   19  A    between atoms: _44  and  _46
REMARK   20  A    between atoms: _46  and  _47
REMARK   21  A    between atoms: _46  and  _49
REMARK   22  A    between atoms: _49  and  _50
REMARK   23  A    between atoms: _50  and  _51
REMARK   24  A    between atoms: _53  and  _55
REMARK   25  A    between atoms: _55  and  _56
REMARK   26  A    between atoms: _59  and  _61
REMARK   27  A    between atoms: _61  and  _62
REMARK   28  A    between atoms: _61  and  _64
REMARK   29  A    between atoms: _66  and  _68
REMARK   30  A    between atoms: _68  and  _69
REMARK   31  A    between atoms: _68  and  _71
REMARK   32  A    between atoms: _71  and  _72
REMARK   33  A    between atoms: _77  and  _78
REMARK   34  A    between atoms: _80  and  _82
REMARK   35  A    between atoms: _82  and  _83
REMARK   36  A    between atoms: _85  and  _87
REMARK   37  A    between atoms: _87  and  _88
REMARK   38  A    between atoms: _87  and  _90
REMARK   39  A    between atoms: _90  and  _91
REMARK   40  A    between atoms: _96  and  _97
REMARK   41  A    between atoms: _99  and  _101
REMARK   42  A    between atoms: _101  and  _102
REMARK   43  A    between atoms: _101  and  _104
REMARK   44  A    between atoms: _107  and  _109
REMARK   45  A    between atoms: _120  and  _123
REMARK   46  A    between atoms: _128  and  _129
REMARK   47  A    between atoms: _135  and  _137
REMARK   48  A    between atoms: _137  and  _138
REMARK   49  A    between atoms: _137  and  _140
REMARK   50  A    between atoms: _140  and  _141
REMARK   51  A    between atoms: _141  and  _142
REMARK   52  A    between atoms: _142  and  _143
REMARK   53  A    between atoms: _152  and  _154
REMARK   54  A    between atoms: _154  and  _155
REMARK   55  A    between atoms: _154  and  _157
REMARK   56  A    between atoms: _157  and  _158
REMARK   57  A    between atoms: _161  and  _163
REMARK   58  A    between atoms: _163  and  _164
REMARK   59  A    between atoms: _163  and  _166
REMARK   60  A    between atoms: _166  and  _167
REMARK   61  A    between atoms: _170  and  _172
REMARK   62  A    between atoms: _172  and  _173
REMARK   63  A    between atoms: _172  and  _175
REMARK   64  A    between atoms: _175  and  _176
REMARK   65  A    between atoms: _181  and  _182
REMARK   66  A    between atoms: _184  and  _186
REMARK   67  A    between atoms: _186  and  _187
REMARK   68  A    between atoms: _186  and  _189
REMARK   69  A    between atoms: _189  and  _190
REMARK   70  A    between atoms: _195  and  _196
REMARK   71  A    between atoms: _198  and  _200
REMARK   72  A    between atoms: _200  and  _201
REMARK   73  A    between atoms: _200  and  _203
REMARK   74  A    between atoms: _203  and  _204
REMARK   75  A    between atoms: _209  and  _211
REMARK   76  A    between atoms: _211  and  _212
REMARK   77  A    between atoms: _214  and  _216
REMARK   78  A    between atoms: _216  and  _217
REMARK   79  A    between atoms: _216  and  _219
REMARK   80  A    between atoms: _219  and  _220
REMARK   81  A    between atoms: _223  and  _225
REMARK   82  A    between atoms: _225  and  _226
REMARK   83  A    between atoms: _225  and  _228
REMARK   84  A    between atoms: _228  and  _229
REMARK   85  A    between atoms: _232  and  _234
REMARK   86  A    between atoms: _234  and  _235
REMARK   87  A    between atoms: _234  and  _237
REMARK   88  A    between atoms: _237  and  _238
REMARK   89  A    between atoms: _238  and  _239
REMARK   90  A    between atoms: _239  and  _240
REMARK   91  A    between atoms: _249  and  _251
REMARK   92  A    between atoms: _251  and  _252
REMARK   93  A    between atoms: _251  and  _254
REMARK   94  A    between atoms: _254  and  _255
REMARK   95  A    between atoms: _258  and  _260
REMARK   96  A    between atoms: _260  and  _261
REMARK   97  A    between atoms: _260  and  _263
REMARK   98  A    between atoms: _263  and  _264
REMARK   99  A    between atoms: _267  and  _269
REMARK  100  A    between atoms: _269  and  _270
REMARK  101  A    between atoms: _269  and  _272
REMARK  102  A    between atoms: _272  and  _273
REMARK  103  A    between atoms: _273  and  _274
REMARK  104  A    between atoms: _278  and  _279
REMARK  105  A    between atoms: _284  and  _286
REMARK  106  A    between atoms: _286  and  _287
REMARK  107  A    between atoms: _286  and  _289
REMARK  108  A    between atoms: _289  and  _290
REMARK  109  A    between atoms: _293  and  _295
REMARK  110  A    between atoms: _295  and  _296
REMARK  111  A    between atoms: _295  and  _298
REMARK  112  A    between atoms: _298  and  _299
REMARK  113  A    between atoms: _305  and  _307
REMARK  114  A    between atoms: _307  and  _308
REMARK  115  A    between atoms: _307  and  _310
REMARK  116  A    between atoms: _310  and  _311
REMARK  117  A    between atoms: _316  and  _318
REMARK  118  A    between atoms: _318  and  _319
REMARK  119  A    between atoms: _318  and  _321
REMARK  120  A    between atoms: _321  and  _322
REMARK  121  A    between atoms: _326  and  FE_441
REMARK  122  A    between atoms: _327  and  _329
REMARK  123  A    between atoms: _329  and  _330
REMARK  124  A    between atoms: _329  and  _332
REMARK  125  A    between atoms: _332  and  _333
REMARK  126  A    between atoms: _333  and  _334
REMARK  127  A    between atoms: _337  and  _339
REMARK  128  A    between atoms: _339  and  _340
REMARK  129  A    between atoms: _339  and  _342
REMARK  130  A    between atoms: _345  and  _347
REMARK  131  A    between atoms: _347  and  _348
REMARK  132  A    between atoms: _347  and  _350
REMARK  133  A    between atoms: _350  and  _351
REMARK  134  A    between atoms: _351  and  _352
REMARK  135  A    between atoms: _357  and  _359
REMARK  136  A    between atoms: _359  and  _360
REMARK  137  A    between atoms: _359  and  _362
REMARK  138  A    between atoms: _362  and  _363
REMARK  139  A    between atoms: _363  and  _364
REMARK  140  A    between atoms: _364  and  _365
REMARK  141  A    between atoms: _374  and  _376
REMARK  142  A    between atoms: _376  and  _377
REMARK  143  A    between atoms: _376  and  _379
REMARK  144  A    between atoms: _379  and  _380
REMARK  145  A    between atoms: _385  and  _386
REMARK  146  A    between atoms: _388  and  _390
REMARK  147  A    between atoms: _390  and  _391
REMARK  148  A    between atoms: _394  and  _396
REMARK  149  A    between atoms: _396  and  _397
REMARK  150  A    between atoms: _396  and  _399
REMARK  151  A    between atoms: _399  and  _400
REMARK  152  A    between atoms: _403  and  _405
REMARK  153  A    between atoms: _405  and  _406
REMARK  154  A    between atoms: _405  and  _408
REMARK  155  A    between atoms: _408  and  _409
REMARK  156  A    between atoms: _412  and  _414
REMARK  157  A    between atoms: _414  and  _415
REMARK  158  A    between atoms: _414  and  _417
REMARK  159  A    between atoms: _417  and  _418
REMARK  160  A    between atoms: _428  and  _430
REMARK  161  A    between atoms: _430  and  _431
REMARK  162  A    between atoms: _430  and  _433
REMARK  163  A    between atoms: _433  and  _434
REMARK  164  A    between atoms: _434  and  _435
REMARK  165  A    between atoms: _435  and  _436
REMARK  166  A    between atoms: _436  and  _437
REMARK                            x       y       z     vdW  Elec       q    Type
REMARK                         _______ _______ _______ _____ _____    ______ ____
ROOT
ATOM      1  CA  TYR A   2      19.560  29.306  -6.975  0.00  0.00    +0.153 C 
ENDROOT
BRANCH   1   4
ATOM      2  C   GLY A   1      21.186  29.639  -5.189  0.00  0.00    +0.240 C 
ATOM      3  O   GLY A   1      21.798  28.617  -5.481  0.00  0.00    -0.274 OA
ATOM      4  N   TYR A   2      20.130  30.069  -5.871  0.00  0.00    -0.297 N 
ATOM      5  H   TYR A   2      19.697  30.978  -5.609  0.00  0.00    +0.150 HD
BRANCH   2   6
ATOM      6  CA  GLY A   1      21.620  30.493  -4.014  0.00  0.00    +0.169 C 
BRANCH   6   7
ATOM      7  N   GLY A   1      23.054  30.371  -3.743  0.00  0.00    -0.236 NA
ATOM      8  H   GLY A   1      23.662  29.918  -4.455  0.00  0.00    +0.142 HD
ENDBRANCH   6   7
ENDBRANCH   2   6
ENDBRANCH   1   4
BRANCH   1   9
ATOM      9  C   TYR A   2      19.047  30.323  -7.991  0.00  0.00    +0.241 C 
ATOM     10  O   TYR A   2      18.205  31.153  -7.656  0.00  0.00    -0.273 OA
ATOM     11  N   VAL A   3      19.572  30.273  -9.217  0.00  0.00    -0.298 N 
ATOM     12  H   VAL A   3      20.303  29.563  -9.425  0.00  0.00    +0.150 HD
BRANCH  11  13
ATOM     13  CA  VAL A   3      19.148  31.191 -10.280  0.00  0.00    +0.137 C 
BRANCH  13  14
ATOM     14  CB  VAL A   3      19.968  30.991 -11.589  0.00  0.00    +0.026 C 
ATOM     15  CG2 VAL A   3      21.444  31.269 -11.351  0.00  0.00    +0.002 C 
ATOM     16  CG1 VAL A   3      19.763  29.595 -12.163  0.00  0.00    +0.002 C 
ENDBRANCH  13  14
BRANCH  13  17
ATOM     17  C   VAL A   3      17.651  31.062 -10.610  0.00  0.00    +0.227 C 
ATOM     18  O   VAL A   3      16.996  30.093 -10.210  0.00  0.00    -0.286 OA
ENDBRANCH  13  17
ENDBRANCH  11  13
ENDBRANCH   1   9
BRANCH   1  19
ATOM     19  CB  TYR A   2      18.429  28.404  -6.443  0.00  0.00    +0.055 C 
BRANCH  19  20
ATOM     20  CG  TYR A   2      18.019  27.215  -7.312  0.00  0.00    -0.020 A 
ATOM     21  CD2 TYR A   2      17.618  26.013  -6.726  0.00  0.00    -0.001 A 
ATOM     22  CE2 TYR A   2      17.225  24.913  -7.501  0.00  0.00    +0.036 A 
ATOM     23  CZ  TYR A   2      17.211  25.021  -8.869  0.00  0.00    +0.134 A 
ATOM     24  CE1 TYR A   2      17.587  26.216  -9.481  0.00  0.00    +0.036 A 
ATOM     25  CD1 TYR A   2      17.978  27.303  -8.700  0.00  0.00    -0.001 A 
BRANCH  23  26
ATOM     26  OH  TYR A   2      16.819  23.951  -9.646  0.00  0.00    -0.506 OA
ATOM     27  HH  TYR A   2      15.888  23.702  -9.418  0.00  0.00    +0.292 HD
ENDBRANCH  23  26
ENDBRANCH  19  20
ENDBRANCH   1  19
TORSDOF 10
REMARK  Name = ../refined-set-2016/3ouj/3ouj_pocket.pdb
REMARK  166 active torsions:
REMARK  status: ('A' for Active; 'I' for Inactive)
REMARK    1  A    between atoms: _1  and  _3
REMARK    2  A    between atoms: _3  and  _4
REMARK    3  A    between atoms: _3  and  _6
REMARK    4  A    between atoms: _6  and  _7
REMARK    5  A    between atoms: _9  and  _11
REMARK    6  A    between atoms: _11  and  _12
REMARK    7  A    between atoms: _11  and  _14
REMARK    8  A    between atoms: _14  and  _15
REMARK    9  A    between atoms: _15  and  _16
REMARK   10  A    between atoms: _16  and  _17
REMARK   11  A    between atoms: _26  and  _28
REMARK   12  A    between atoms: _28  and  _29
REMARK   13  A    between atoms: _28  and  _31
REMARK   14  A    between atoms: _31  and  _32
REMARK   15  A    between atoms: _35  and  _37
REMARK   16  A    between atoms: _37  and  _38
REMARK   17  A    between atoms: _37  and  _40
REMARK   18  A    between atoms: _40  and  _41
REMARK   19  A    between atoms: _44  and  _46
REMARK   20  A    between atoms: _46  and  _47
REMARK   21  A    between atoms: _46  and  _49
REMARK   22  A    between atoms: _49  and  _50
REMARK   23  A    between atoms: _50  and  _51
REMARK   24  A    between atoms: _53  and  _55
REMARK   25  A    between atoms: _55  and  _56
REMARK   26  A    between atoms: _59  and  _61
REMARK   27  A    between atoms: _61  and  _62
REMARK   28  A    between atoms: _61  and  _64
REMARK   29  A    between atoms: _66  and  _68
REMARK   30  A    between atoms: _68  and  _69
REMARK   31  A    between atoms: _68  and  _71
REMARK   32  A    between atoms: _71  and  _72
REMARK   33  A    between atoms: _77  and  _78
REMARK   34  A    between atoms: _80  and  _82
REMARK   35  A    between atoms: _82  and  _83
REMARK   36  A    between atoms: _85  and  _87
REMARK   37  A    between atoms: _87  and  _88
REMARK   38  A    between atoms: _87  and  _90
REMARK   39  A    between atoms: _90  and  _91
REMARK   40  A    between atoms: _96  and  _97
REMARK   41  A    between atoms: _99  and  _101
REMARK   42  A    between atoms: _101  and  _102
REMARK   43  A    between atoms: _101  and  _104
REMARK   44  A    between atoms: _107  and  _109
REMARK   45  A    between atoms: _120  and  _123
REMARK   46  A    between atoms: _128  and  _129
REMARK   47  A    between atoms: _135  and  _137
REMARK   48  A    between atoms: _137  and  _138
REMARK   49  A    between atoms: _137  and  _140
REMARK   50  A    between atoms: _140  and  _141
REMARK   51  A    between atoms: _141  and  _142
REMARK   52  A    between atoms: _142  and  _143
REMARK   53  A    between atoms: _152  and  _154
REMARK   54  A    between atoms: _154  and  _155
REMARK   55  A    between atoms: _154  and  _157
REMARK   56  A    between atoms: _157  and  _158
REMARK   57  A    between atoms: _161  and  _163
REMARK   58  A    between atoms: _163  and  _164
REMARK   59  A    between atoms: _163  and  _166
REMARK   60  A    between atoms: _166  and  _167
REMARK   61  A    between atoms: _170  and  _172
REMARK   62  A    between atoms: _172  and  _173
REMARK   63  A    between atoms: _172  and  _175
REMARK   64  A    between atoms: _175  and  _176
REMARK   65  A    between atoms: _181  and  _182
REMARK   66  A    between atoms: _184  and  _186
REMARK   67  A    between atoms: _186  and  _187
REMARK   68  A    between atoms: _186  and  _189
REMARK   69  A    between atoms: _189  and  _190
REMARK   70  A    between atoms: _195  and  _196
REMARK   71  A    between atoms: _198  and  _200
REMARK   72  A    between atoms: _200  and  _201
REMARK   73  A    between atoms: _200  and  _203
REMARK   74  A    between atoms: _203  and  _204
REMARK   75  A    between atoms: _209  and  _211
REMARK   76  A    between atoms: _211  and  _212
REMARK   77  A    between atoms: _214  and  _216
REMARK   78  A    between atoms: _216  and  _217
REMARK   79  A    between atoms: _216  and  _219
REMARK   80  A    between atoms: _219  and  _220
REMARK   81  A    between atoms: _223  and  _225
REMARK   82  A    between atoms: _225  and  _226
REMARK   83  A    between atoms: _225  and  _228
REMARK   84  A    between atoms: _228  and  _229
REMARK   85  A    between atoms: _232  and  _234
REMARK   86  A    between atoms: _234  and  _235
REMARK   87  A    between atoms: _234  and  _237
REMARK   88  A    between atoms: _237  and  _238
REMARK   89  A    between atoms: _238  and  _239
REMARK   90  A    between atoms: _239  and  _240
REMARK   91  A    between atoms: _249  and  _251
REMARK   92  A    between atoms: _251  and  _252
REMARK   93  A    between atoms: _251  and  _254
REMARK   94  A    between atoms: _254  and  _255
REMARK   95  A    between atoms: _258  and  _260
REMARK   96  A    between atoms: _260  and  _261
REMARK   97  A    between atoms: _260  and  _263
REMARK   98  A    between atoms: _263  and  _264
REMARK   99  A    between atoms: _267  and  _269
REMARK  100  A    between atoms: _269  and  _270
REMARK  101  A    between atoms: _269  and  _272
REMARK  102  A    between atoms: _272  and  _273
REMARK  103  A    between atoms: _273  and  _274
REMARK  104  A    between atoms: _278  and  _279
REMARK  105  A    between atoms: _284  and  _286
REMARK  106  A    between atoms: _286  and  _287
REMARK  107  A    between atoms: _286  and  _289
REMARK  108  A    between atoms: _289  and  _290
REMARK  109  A    between atoms: _293  and  _295
REMARK  110  A    between atoms: _295  and  _296
REMARK  111  A    between atoms: _295  and  _298
REMARK  112  A    between atoms: _298  and  _299
REMARK  113  A    between atoms: _305  and  _307
REMARK  114  A    between atoms: _307  and  _308
REMARK  115  A    between atoms: _307  and  _310
REMARK  116  A    between atoms: _310  and  _311
REMARK  117  A    between atoms: _316  and  _318
REMARK  118  A    between atoms: _318  and  _319
REMARK  119  A    between atoms: _318  and  _321
REMARK  120  A    between atoms: _321  and  _322
REMARK  121  A    between atoms: _326  and  FE_441
REMARK  122  A    between atoms: _327  and  _329
REMARK  123  A    between atoms: _329  and  _330
REMARK  124  A    between atoms: _329  and  _332
REMARK  125  A    between atoms: _332  and  _333
REMARK  126  A    between atoms: _333  and  _334
REMARK  127  A    between atoms: _337  and  _339
REMARK  128  A    between atoms: _339  and  _340
REMARK  129  A    between atoms: _339  and  _342
REMARK  130  A    between atoms: _345  and  _347
REMARK  131  A    between atoms: _347  and  _348
REMARK  132  A    between atoms: _347  and  _350
REMARK  133  A    between atoms: _350  and  _351
REMARK  134  A    between atoms: _351  and  _352
REMARK  135  A    between atoms: _357  and  _359
REMARK  136  A    between atoms: _359  and  _360
REMARK  137  A    between atoms: _359  and  _362
REMARK  138  A    between atoms: _362  and  _363
REMARK  139  A    between atoms: _363  and  _364
REMARK  140  A    between atoms: _364  and  _365
REMARK  141  A    between atoms: _374  and  _376
REMARK  142  A    between atoms: _376  and  _377
REMARK  143  A    between atoms: _376  and  _379
REMARK  144  A    between atoms: _379  and  _380
REMARK  145  A    between atoms: _385  and  _386
REMARK  146  A    between atoms: _388  and  _390
REMARK  147  A    between atoms: _390  and  _391
REMARK  148  A    between atoms: _394  and  _396
REMARK  149  A    between atoms: _396  and  _397
REMARK  150  A    between atoms: _396  and  _399
REMARK  151  A    between atoms: _399  and  _400
REMARK  152  A    between atoms: _403  and  _405
REMARK  153  A    between atoms: _405  and  _406
REMARK  154  A    between atoms: _405  and  _408
REMARK  155  A    between atoms: _408  and  _409
REMARK  156  A    between atoms: _412  and  _414
REMARK  157  A    between atoms: _414  and  _415
REMARK  158  A    between atoms: _414  and  _417
REMARK  159  A    between atoms: _417  and  _418
REMARK  160  A    between atoms: _428  and  _430
REMARK  161  A    between atoms: _430  and  _431
REMARK  162  A    between atoms: _430  and  _433
REMARK  163  A    between atoms: _433  and  _434
REMARK  164  A    between atoms: _434  and  _435
REMARK  165  A    between atoms: _435  and  _436
REMARK  166  A    between atoms: _436  and  _437
REMARK                            x       y       z     vdW  Elec       q    Type
REMARK                         _______ _______ _______ _____ _____    ______ ____
ROOT
ATOM      1  C   UNK A   3      10.729  31.535  -7.646  0.00  0.00    +0.000 C 
ENDROOT
BRANCH   1   4
ATOM      2  N   UNK A   3      11.153  27.895  -7.557  0.00  0.00    +0.000 N 
ATOM      3  C   UNK A   3      11.469  29.127  -7.041  0.00  0.00    +0.000 A 
ATOM      4  C   UNK A   3      10.761  30.046  -7.738  0.00  0.00    +0.000 A 
ATOM      5  N   UNK A   3      10.033  29.344  -8.676  0.00  0.00    +0.000 NA
ATOM      6  C   UNK A   3      10.286  28.052  -8.545  0.00  0.00    +0.000 A 
BRANCH   2  13
ATOM      7  C   UNK A   1      13.861  28.944 -12.680  0.00  0.00    +0.000 C 
ATOM      8  C   UNK A   1      14.707  27.807 -12.081  0.00  0.00    +0.000 C 
ATOM      9  C   UNK A   1      14.463  27.589 -10.621  0.00  0.00    +0.000 A 
ATOM     10  N   UNK A   1      15.086  28.335  -9.645  0.00  0.00    +0.000 NA
ATOM     11  C   UNK A   1      14.677  27.933  -8.454  0.00  0.00    +0.000 A 
ATOM     12  N   UNK A   3      13.796  26.963  -8.622  0.00  0.00    +0.000 N 
ATOM     13 FE   UNK A   3      12.334  26.075  -7.219  0.00  0.00    +0.000 Fe
ATOM     14  O   UNK A   3      10.899  25.382  -5.467  0.00  0.00    +0.000 OA
ATOM     15  O   UNK A   3      11.036  24.990  -8.546  0.00  0.00    +0.000 OA
ATOM     16  C   UNK A   3       9.932  24.427  -8.492  0.00  0.00    +0.000 C 
ATOM     17  O   UNK A   3       9.286  24.354  -7.436  0.00  0.00    +0.000 OA
ATOM     18  C   UNK A   3       9.306  23.805  -9.738  0.00  0.00    +0.000 C 
ATOM     19  C   UNK A   3      10.156  23.989 -11.010  0.00  0.00    +0.000 C 
ATOM     20  N   UNK A   3      10.022  25.357 -11.556  0.00  0.00    +0.000 N 
ATOM     21  H   UNK A   3       9.335  26.007 -11.123  0.00  0.00    +0.000 HD
ATOM     22  C   VAL A   2      10.753  25.783 -12.585  0.00  0.00    +0.000 C 
ATOM     23  CA  VAL A   2      10.547  27.229 -13.057  0.00  0.00    +0.000 C 
ATOM     24  N   VAL A   2      11.860  27.796 -13.209  0.00  0.00    +0.000 N 
ATOM     25  H   VAL A   2      12.423  27.493 -14.029  0.00  0.00    +0.000 HD
ATOM     26  O   VAL A   2      11.591  25.076 -13.139  0.00  0.00    +0.000 OA
ATOM     27  C   UNK A   3      13.643  26.729  -9.970  0.00  0.00    +0.000 A 
ATOM     28  C   UNK A   1      12.407  28.676 -12.382  0.00  0.00    +0.000 C 
ATOM     29  O   UNK A   1      11.820  29.231 -11.427  0.00  0.00    +0.000 OA
BRANCH  23  30
ATOM     30  CB  VAL A   2       9.847  27.268 -14.422  0.00  0.00    +0.000 C 
ATOM     31  CG2 VAL A   2       8.550  26.472 -14.417  0.00  0.00    +0.000 C 
ATOM     32  CG1 VAL A   2       9.641  28.738 -14.859  0.00  0.00    +0.000 C 
ENDBRANCH  23  30
BRANCH  19  33
ATOM     33  C   UNK A   3       9.746  22.912 -12.024  0.00  0.00    +0.000 C 
ATOM     34  O   UNK A   3      10.451  21.923 -12.189  0.00  0.00    +0.000 OA
ENDBRANCH  19  33
BRANCH   7  35
ATOM     35  N   UNK A   1      14.247  30.204 -12.103  0.00  0.00    +0.000 NA
ATOM     36  H   UNK A   1      13.643  30.638 -11.376  0.00  0.00    +0.000 HD
ENDBRANCH   7  35
ENDBRANCH   2  13
ENDBRANCH   1   4
BRANCH   1  37
ATOM     37  C   UNK A   3      11.504  32.227  -8.773  0.00  0.00    +0.000 C 
BRANCH  37  38
ATOM     38  C   UNK A   3      12.978  31.970  -8.607  0.00  0.00    +0.000 C 
ATOM     39  N   VAL A   2      13.579  32.598  -7.598  0.00  0.00    +0.000 N 
ATOM     40  H   VAL A   2      13.015  33.204  -6.968  0.00  0.00    +0.000 HD
ATOM     41  O   UNK A   3      13.560  31.193  -9.351  0.00  0.00    +0.000 OA
BRANCH  39  42
ATOM     42  CA  VAL A   2      15.014  32.454  -7.356  0.00  0.00    +0.000 C 
BRANCH  42  43
ATOM     43  C   VAL A   2      15.336  32.570  -5.873  0.00  0.00    +0.000 C 
ATOM     44  O   VAL A   2      14.738  33.373  -5.167  0.00  0.00    +0.000 OA
ATOM     45  N   UNK A   3      16.284  31.762  -5.409  0.00  0.00    +0.000 N 
ATOM     46  H   UNK A   3      16.613  30.973  -6.002  0.00  0.00    +0.000 HD
BRANCH  45  47
ATOM     47  C   UNK A   3      16.871  31.952  -4.098  0.00  0.00    +0.000 C 
BRANCH  47  48
ATOM     48  C   UNK A   3      18.066  32.891  -4.238  0.00  0.00    +0.000 C 
ATOM     49  N   GLN A   4      17.945  34.061  -3.625  0.00  0.00    +0.000 N 
ATOM     50  H   GLN A   4      17.050  34.278  -3.141  0.00  0.00    +0.000 HD
ATOM     51  O   UNK A   3      19.044  32.574  -4.909  0.00  0.00    +0.000 OA
BRANCH  49  52
ATOM     52  CA  GLN A   4      19.002  35.050  -3.599  0.00  0.00    +0.000 C 
BRANCH  52  53
ATOM     53  C   GLN A   4      20.120  34.648  -2.643  0.00  0.00    +0.000 C 
ATOM     54  O   GLN A   4      19.883  33.881  -1.709  0.00  0.00    +0.000 OA
ENDBRANCH  52  53
BRANCH  52  55
ATOM     55  CB  GLN A   4      18.439  36.392  -3.157  0.00  0.00    +0.000 C 
BRANCH  55  56
ATOM     56  CG  GLN A   4      17.668  37.094  -4.248  0.00  0.00    +0.000 C 
BRANCH  56  57
ATOM     57  CD  GLN A   4      17.100  38.384  -3.786  0.00  0.00    +0.000 C 
ATOM     58  OE1 GLN A   4      17.007  38.631  -2.596  0.00  0.00    +0.000 OA
ATOM     59  NE2 GLN A   4      16.714  39.229  -4.722  0.00  0.00    +0.000 N 
ATOM     60 HE21 GLN A   4      16.311  40.150  -4.457  0.00  0.00    +0.000 HD
ATOM     61 HE22 GLN A   4      16.813  38.974  -5.725  0.00  0.00    +0.000 HD
ENDBRANCH  56  57
ENDBRANCH  55  56
ENDBRANCH  52  55
ENDBRANCH  49  52
ENDBRANCH  47  48
BRANCH  47  62
ATOM     62  C   UNK A   3      17.307  30.633  -3.447  0.00  0.00    +0.000 C 
ATOM     63  C   UNK A   3      17.850  30.893  -2.046  0.00  0.00    +0.000 C 
ATOM     64  C   UNK A   3      16.126  29.653  -3.406  0.00  0.00    +0.000 C 
ENDBRANCH  47  62
ENDBRANCH  45  47
ENDBRANCH  42  43
BRANCH  42  65
ATOM     65  CB  VAL A   2      15.780  33.532  -8.144  0.00  0.00    +0.000 C 
BRANCH  65  66
ATOM     66  CG  VAL A   2      15.762  34.924  -7.483  0.00  0.00    +0.000 C 
BRANCH  66  67
ATOM     67  CD  VAL A   2      16.042  36.079  -8.435  0.00  0.00    +0.000 C 
ATOM     68  OE2 VAL A   2      16.026  37.231  -7.954  0.00  0.00    +0.000 OA
ATOM     69  OE1 VAL A   2      16.258  35.852  -9.640  0.00  0.00    +0.000 OA
ENDBRANCH  66  67
ENDBRANCH  65  66
ENDBRANCH  42  65
ENDBRANCH  39  42
ENDBRANCH  37  38
BRANCH  37  70
ATOM     70  N   UNK A   3      11.037  31.754 -10.068  0.00  0.00    +0.000 NA
ATOM     71  H   UNK A   1      11.566  31.004 -10.558  0.00  0.00    +0.000 HD
ENDBRANCH  37  70
ENDBRANCH   1  37
TORSDOF 21
REMARK  Name = ../refined-set-2016/3ouj/3ouj_pocket.pdb
REMARK  166 active torsions:
REMARK  status: ('A' for Active; 'I' for Inactive)
REMARK    1  A    between atoms: _1  and  _3
REMARK    2  A    between atoms: _3  and  _4
REMARK    3  A    between atoms: _3  and  _6
REMARK    4  A    between atoms: _6  and  _7
REMARK    5  A    between atoms: _9  and  _11
REMARK    6  A    between atoms: _11  and  _12
REMARK    7  A    between atoms: _11  and  _14
REMARK    8  A    between atoms: _14  and  _15
REMARK    9  A    between atoms: _15  and  _16
REMARK   10  A    between atoms: _16  and  _17
REMARK   11  A    between atoms: _26  and  _28
REMARK   12  A    between atoms: _28  and  _29
REMARK   13  A    between atoms: _28  and  _31
REMARK   14  A    between atoms: _31  and  _32
REMARK   15  A    between atoms: _35  and  _37
REMARK   16  A    between atoms: _37  and  _38
REMARK   17  A    between atoms: _37  and  _40
REMARK   18  A    between atoms: _40  and  _41
REMARK   19  A    between atoms: _44  and  _46
REMARK   20  A    between atoms: _46  and  _47
REMARK   21  A    between atoms: _46  and  _49
REMARK   22  A    between atoms: _49  and  _50
REMARK   23  A    between atoms: _50  and  _51
REMARK   24  A    between atoms: _53  and  _55
REMARK   25  A    between atoms: _55  and  _56
REMARK   26  A    between atoms: _59  and  _61
REMARK   27  A    between atoms: _61  and  _62
REMARK   28  A    between atoms: _61  and  _64
REMARK   29  A    between atoms: _66  and  _68
REMARK   30  A    between atoms: _68  and  _69
REMARK   31  A    between atoms: _68  and  _71
REMARK   32  A    between atoms: _71  and  _72
REMARK   33  A    between atoms: _77  and  _78
REMARK   34  A    between atoms: _80  and  _82
REMARK   35  A    between atoms: _82  and  _83
REMARK   36  A    between atoms: _85  and  _87
REMARK   37  A    between atoms: _87  and  _88
REMARK   38  A    between atoms: _87  and  _90
REMARK   39  A    between atoms: _90  and  _91
REMARK   40  A    between atoms: _96  and  _97
REMARK   41  A    between atoms: _99  and  _101
REMARK   42  A    between atoms: _101  and  _102
REMARK   43  A    between atoms: _101  and  _104
REMARK   44  A    between atoms: _107  and  _109
REMARK   45  A    between atoms: _120  and  _123
REMARK   46  A    between atoms: _128  and  _129
REMARK   47  A    between atoms: _135  and  _137
REMARK   48  A    between atoms: _137  and  _138
REMARK   49  A    between atoms: _137  and  _140
REMARK   50  A    between atoms: _140  and  _141
REMARK   51  A    between atoms: _141  and  _142
REMARK   52  A    between atoms: _142  and  _143
REMARK   53  A    between atoms: _152  and  _154
REMARK   54  A    between atoms: _154  and  _155
REMARK   55  A    between atoms: _154  and  _157
REMARK   56  A    between atoms: _157  and  _158
REMARK   57  A    between atoms: _161  and  _163
REMARK   58  A    between atoms: _163  and  _164
REMARK   59  A    between atoms: _163  and  _166
REMARK   60  A    between atoms: _166  and  _167
REMARK   61  A    between atoms: _170  and  _172
REMARK   62  A    between atoms: _172  and  _173
REMARK   63  A    between atoms: _172  and  _175
REMARK   64  A    between atoms: _175  and  _176
REMARK   65  A    between atoms: _181  and  _182
REMARK   66  A    between atoms: _184  and  _186
REMARK   67  A    between atoms: _186  and  _187
REMARK   68  A    between atoms: _186  and  _189
REMARK   69  A    between atoms: _189  and  _190
REMARK   70  A    between atoms: _195  and  _196
REMARK   71  A    between atoms: _198  and  _200
REMARK   72  A    between atoms: _200  and  _201
REMARK   73  A    between atoms: _200  and  _203
REMARK   74  A    between atoms: _203  and  _204
REMARK   75  A    between atoms: _209  and  _211
REMARK   76  A    between atoms: _211  and  _212
REMARK   77  A    between atoms: _214  and  _216
REMARK   78  A    between atoms: _216  and  _217
REMARK   79  A    between atoms: _216  and  _219
REMARK   80  A    between atoms: _219  and  _220
REMARK   81  A    between atoms: _223  and  _225
REMARK   82  A    between atoms: _225  and  _226
REMARK   83  A    between atoms: _225  and  _228
REMARK   84  A    between atoms: _228  and  _229
REMARK   85  A    between atoms: _232  and  _234
REMARK   86  A    between atoms: _234  and  _235
REMARK   87  A    between atoms: _234  and  _237
REMARK   88  A    between atoms: _237  and  _238
REMARK   89  A    between atoms: _238  and  _239
REMARK   90  A    between atoms: _239  and  _240
REMARK   91  A    between atoms: _249  and  _251
REMARK   92  A    between atoms: _251  and  _252
REMARK   93  A    between atoms: _251  and  _254
REMARK   94  A    between atoms: _254  and  _255
REMARK   95  A    between atoms: _258  and  _260
REMARK   96  A    between atoms: _260  and  _261
REMARK   97  A    between atoms: _260  and  _263
REMARK   98  A    between atoms: _263  and  _264
REMARK   99  A    between atoms: _267  and  _269
REMARK  100  A    between atoms: _269  and  _270
REMARK  101  A    between atoms: _269  and  _272
REMARK  102  A    between atoms: _272  and  _273
REMARK  103  A    between atoms: _273  and  _274
REMARK  104  A    between atoms: _278  and  _279
REMARK  105  A    between atoms: _284  and  _286
REMARK  106  A    between atoms: _286  and  _287
REMARK  107  A    between atoms: _286  and  _289
REMARK  108  A    between atoms: _289  and  _290
REMARK  109  A    between atoms: _293  and  _295
REMARK  110  A    between atoms: _295  and  _296
REMARK  111  A    between atoms: _295  and  _298
REMARK  112  A    between atoms: _298  and  _299
REMARK  113  A    between atoms: _305  and  _307
REMARK  114  A    between atoms: _307  and  _308
REMARK  115  A    between atoms: _307  and  _310
REMARK  116  A    between atoms: _310  and  _311
REMARK  117  A    between atoms: _316  and  _318
REMARK  118  A    between atoms: _318  and  _319
REMARK  119  A    between atoms: _318  and  _321
REMARK  120  A    between atoms: _321  and  _322
REMARK  121  A    between atoms: _326  and  FE_441
REMARK  122  A    between atoms: _327  and  _329
REMARK  123  A    between atoms: _329  and  _330
REMARK  124  A    between atoms: _329  and  _332
REMARK  125  A    between atoms: _332  and  _333
REMARK  126  A    between atoms: _333  and  _334
REMARK  127  A    between atoms: _337  and  _339
REMARK  128  A    between atoms: _339  and  _340
REMARK  129  A    between atoms: _339  and  _342
REMARK  130  A    between atoms: _345  and  _347
REMARK  131  A    between atoms: _347  and  _348
REMARK  132  A    between atoms: _347  and  _350
REMARK  133  A    between atoms: _350  and  _351
REMARK  134  A    between atoms: _351  and  _352
REMARK  135  A    between atoms: _357  and  _359
REMARK  136  A    between atoms: _359  and  _360
REMARK  137  A    between atoms: _359  and  _362
REMARK  138  A    between atoms: _362  and  _363
REMARK  139  A    between atoms: _363  and  _364
REMARK  140  A    between atoms: _364  and  _365
REMARK  141  A    between atoms: _374  and  _376
REMARK  142  A    between atoms: _376  and  _377
REMARK  143  A    between atoms: _376  and  _379
REMARK  144  A    between atoms: _379  and  _380
REMARK  145  A    between atoms: _385  and  _386
REMARK  146  A    between atoms: _388  and  _390
REMARK  147  A    between atoms: _390  and  _391
REMARK  148  A    between atoms: _394  and  _396
REMARK  149  A    between atoms: _396  and  _397
REMARK  150  A    between atoms: _396  and  _399
REMARK  151  A    between atoms: _399  and  _400
REMARK  152  A    between atoms: _403  and  _405
REMARK  153  A    between atoms: _405  and  _406
REMARK  154  A    between atoms: _405  and  _408
REMARK  155  A    between atoms: _408  and  _409
REMARK  156  A    between atoms: _412  and  _414
REMARK  157  A    between atoms: _414  and  _415
REMARK  158  A    between atoms: _414  and  _417
REMARK  159  A    between atoms: _417  and  _418
REMARK  160  A    between atoms: _428  and  _430
REMARK  161  A    between atoms: _430  and  _431
REMARK  162  A    between atoms: _430  and  _433
REMARK  163  A    between atoms: _433  and  _434
REMARK  164  A    between atoms: _434  and  _435
REMARK  165  A    between atoms: _435  and  _436
REMARK  166  A    between atoms: _436  and  _437
REMARK                            x       y       z     vdW  Elec       q    Type
REMARK                         _______ _______ _______ _____ _____    ______ ____
ROOT
ATOM      1  NE  ARG A   1       8.354  18.162 -10.401  0.00  0.00    -0.265 N 
ATOM      2  CZ  ARG A   1       9.461  18.905 -10.391  0.00  0.00    +0.342 C 
ATOM      3  NH2 ARG A   1       9.997  19.343  -9.262  0.00  0.00    -0.292 N 
ATOM      4 HH21 ARG A   1       9.554  19.109  -8.351  0.00  0.00    +0.255 HD
ATOM      5 HH22 ARG A   1      10.861  19.921  -9.287  0.00  0.00    +0.255 HD
ATOM      6  NH1 ARG A   1      10.022  19.241 -11.534  0.00  0.00    -0.292 N 
ATOM      7 HH11 ARG A   1      10.886  19.820 -11.539  0.00  0.00    +0.255 HD
ATOM      8 HH12 ARG A   1       9.601  18.927 -12.432  0.00  0.00    +0.255 HD
ATOM      9  HE  ARG A   1       7.977  17.883 -11.329  0.00  0.00    +0.259 HD
ENDROOT
BRANCH   1  10
ATOM     10  CD  ARG A   1       7.622  17.704  -9.216  0.00  0.00    +0.174 C 
BRANCH  10  11
ATOM     11  CG  ARG A   1       6.145  17.443  -9.519  0.00  0.00    +0.045 C 
BRANCH  11  12
ATOM     12  CB  ARG A   1       5.407  18.728  -9.908  0.00  0.00    +0.029 C 
BRANCH  12  13
ATOM     13  CA  ARG A   1       3.977  18.496 -10.403  0.00  0.00    +0.133 C 
BRANCH  13  14
ATOM     14  N   ARG A   1       3.983  17.772 -11.688  0.00  0.00    -0.239 NA
ATOM     15  H   ARG A   1       4.834  17.809 -12.284  0.00  0.00    +0.142 HD
ENDBRANCH  13  14
BRANCH  13  16
ATOM     16  C   ARG A   1       3.234  19.826 -10.513  0.00  0.00    +0.224 C 
ATOM     17  O   ARG A   1       3.648  20.706 -11.274  0.00  0.00    -0.287 OA
ENDBRANCH  13  16
ENDBRANCH  12  13
ENDBRANCH  11  12
ENDBRANCH  10  11
ENDBRANCH   1  10
TORSDOF 6
REMARK  Name = ../refined-set-2016/3ouj/3ouj_pocket.pdb
REMARK  166 active torsions:
REMARK  status: ('A' for Active; 'I' for Inactive)
REMARK    1  A    between atoms: _1  and  _3
REMARK    2  A    between atoms: _3  and  _4
REMARK    3  A    between atoms: _3  and  _6
REMARK    4  A    between atoms: _6  and  _7
REMARK    5  A    between atoms: _9  and  _11
REMARK    6  A    between atoms: _11  and  _12
REMARK    7  A    between atoms: _11  and  _14
REMARK    8  A    between atoms: _14  and  _15
REMARK    9  A    between atoms: _15  and  _16
REMARK   10  A    between atoms: _16  and  _17
REMARK   11  A    between atoms: _26  and  _28
REMARK   12  A    between atoms: _28  and  _29
REMARK   13  A    between atoms: _28  and  _31
REMARK   14  A    between atoms: _31  and  _32
REMARK   15  A    between atoms: _35  and  _37
REMARK   16  A    between atoms: _37  and  _38
REMARK   17  A    between atoms: _37  and  _40
REMARK   18  A    between atoms: _40  and  _41
REMARK   19  A    between atoms: _44  and  _46
REMARK   20  A    between atoms: _46  and  _47
REMARK   21  A    between atoms: _46  and  _49
REMARK   22  A    between atoms: _49  and  _50
REMARK   23  A    between atoms: _50  and  _51
REMARK   24  A    between atoms: _53  and  _55
REMARK   25  A    between atoms: _55  and  _56
REMARK   26  A    between atoms: _59  and  _61
REMARK   27  A    between atoms: _61  and  _62
REMARK   28  A    between atoms: _61  and  _64
REMARK   29  A    between atoms: _66  and  _68
REMARK   30  A    between atoms: _68  and  _69
REMARK   31  A    between atoms: _68  and  _71
REMARK   32  A    between atoms: _71  and  _72
REMARK   33  A    between atoms: _77  and  _78
REMARK   34  A    between atoms: _80  and  _82
REMARK   35  A    between atoms: _82  and  _83
REMARK   36  A    between atoms: _85  and  _87
REMARK   37  A    between atoms: _87  and  _88
REMARK   38  A    between atoms: _87  and  _90
REMARK   39  A    between atoms: _90  and  _91
REMARK   40  A    between atoms: _96  and  _97
REMARK   41  A    between atoms: _99  and  _101
REMARK   42  A    between atoms: _101  and  _102
REMARK   43  A    between atoms: _101  and  _104
REMARK   44  A    between atoms: _107  and  _109
REMARK   45  A    between atoms: _120  and  _123
REMARK   46  A    between atoms: _128  and  _129
REMARK   47  A    between atoms: _135  and  _137
REMARK   48  A    between atoms: _137  and  _138
REMARK   49  A    between atoms: _137  and  _140
REMARK   50  A    between atoms: _140  and  _141
REMARK   51  A    between atoms: _141  and  _142
REMARK   52  A    between atoms: _142  and  _143
REMARK   53  A    between atoms: _152  and  _154
REMARK   54  A    between atoms: _154  and  _155
REMARK   55  A    between atoms: _154  and  _157
REMARK   56  A    between atoms: _157  and  _158
REMARK   57  A    between atoms: _161  and  _163
REMARK   58  A    between atoms: _163  and  _164
REMARK   59  A    between atoms: _163  and  _166
REMARK   60  A    between atoms: _166  and  _167
REMARK   61  A    between atoms: _170  and  _172
REMARK   62  A    between atoms: _172  and  _173
REMARK   63  A    between atoms: _172  and  _175
REMARK   64  A    between atoms: _175  and  _176
REMARK   65  A    between atoms: _181  and  _182
REMARK   66  A    between atoms: _184  and  _186
REMARK   67  A    between atoms: _186  and  _187
REMARK   68  A    between atoms: _186  and  _189
REMARK   69  A    between atoms: _189  and  _190
REMARK   70  A    between atoms: _195  and  _196
REMARK   71  A    between atoms: _198  and  _200
REMARK   72  A    between atoms: _200  and  _201
REMARK   73  A    between atoms: _200  and  _203
REMARK   74  A    between atoms: _203  and  _204
REMARK   75  A    between atoms: _209  and  _211
REMARK   76  A    between atoms: _211  and  _212
REMARK   77  A    between atoms: _214  and  _216
REMARK   78  A    between atoms: _216  and  _217
REMARK   79  A    between atoms: _216  and  _219
REMARK   80  A    between atoms: _219  and  _220
REMARK   81  A    between atoms: _223  and  _225
REMARK   82  A    between atoms: _225  and  _226
REMARK   83  A    between atoms: _225  and  _228
REMARK   84  A    between atoms: _228  and  _229
REMARK   85  A    between atoms: _232  and  _234
REMARK   86  A    between atoms: _234  and  _235
REMARK   87  A    between atoms: _234  and  _237
REMARK   88  A    between atoms: _237  and  _238
REMARK   89  A    between atoms: _238  and  _239
REMARK   90  A    between atoms: _239  and  _240
REMARK   91  A    between atoms: _249  and  _251
REMARK   92  A    between atoms: _251  and  _252
REMARK   93  A    between atoms: _251  and  _254
REMARK   94  A    between atoms: _254  and  _255
REMARK   95  A    between atoms: _258  and  _260
REMARK   96  A    between atoms: _260  and  _261
REMARK   97  A    between atoms: _260  and  _263
REMARK   98  A    between atoms: _263  and  _264
REMARK   99  A    between atoms: _267  and  _269
REMARK  100  A    between atoms: _269  and  _270
REMARK  101  A    between atoms: _269  and  _272
REMARK  102  A    between atoms: _272  and  _273
REMARK  103  A    between atoms: _273  and  _274
REMARK  104  A    between atoms: _278  and  _279
REMARK  105  A    between atoms: _284  and  _286
REMARK  106  A    between atoms: _286  and  _287
REMARK  107  A    between atoms: _286  and  _289
REMARK  108  A    between atoms: _289  and  _290
REMARK  109  A    between atoms: _293  and  _295
REMARK  110  A    between atoms: _295  and  _296
REMARK  111  A    between atoms: _295  and  _298
REMARK  112  A    between atoms: _298  and  _299
REMARK  113  A    between atoms: _305  and  _307
REMARK  114  A    between atoms: _307  and  _308
REMARK  115  A    between atoms: _307  and  _310
REMARK  116  A    between atoms: _310  and  _311
REMARK  117  A    between atoms: _316  and  _318
REMARK  118  A    between atoms: _318  and  _319
REMARK  119  A    between atoms: _318  and  _321
REMARK  120  A    between atoms: _321  and  _322
REMARK  121  A    between atoms: _326  and  FE_441
REMARK  122  A    between atoms: _327  and  _329
REMARK  123  A    between atoms: _329  and  _330
REMARK  124  A    between atoms: _329  and  _332
REMARK  125  A    between atoms: _332  and  _333
REMARK  126  A    between atoms: _333  and  _334
REMARK  127  A    between atoms: _337  and  _339
REMARK  128  A    between atoms: _339  and  _340
REMARK  129  A    between atoms: _339  and  _342
REMARK  130  A    between atoms: _345  and  _347
REMARK  131  A    between atoms: _347  and  _348
REMARK  132  A    between atoms: _347  and  _350
REMARK  133  A    between atoms: _350  and  _351
REMARK  134  A    between atoms: _351  and  _352
REMARK  135  A    between atoms: _357  and  _359
REMARK  136  A    between atoms: _359  and  _360
REMARK  137  A    between atoms: _359  and  _362
REMARK  138  A    between atoms: _362  and  _363
REMARK  139  A    between atoms: _363  and  _364
REMARK  140  A    between atoms: _364  and  _365
REMARK  141  A    between atoms: _374  and  _376
REMARK  142  A    between atoms: _376  and  _377
REMARK  143  A    between atoms: _376  and  _379
REMARK  144  A    between atoms: _379  and  _380
REMARK  145  A    between atoms: _385  and  _386
REMARK  146  A    between atoms: _388  and  _390
REMARK  147  A    between atoms: _390  and  _391
REMARK  148  A    between atoms: _394  and  _396
REMARK  149  A    between atoms: _396  and  _397
REMARK  150  A    between atoms: _396  and  _399
REMARK  151  A    between atoms: _399  and  _400
REMARK  152  A    between atoms: _403  and  _405
REMARK  153  A    between atoms: _405  and  _406
REMARK  154  A    between atoms: _405  and  _408
REMARK  155  A    between atoms: _408  and  _409
REMARK  156  A    between atoms: _412  and  _414
REMARK  157  A    between atoms: _414  and  _415
REMARK  158  A    between atoms: _414  and  _417
REMARK  159  A    between atoms: _417  and  _418
REMARK  160  A    between atoms: _428  and  _430
REMARK  161  A    between atoms: _430  and  _431
REMARK  162  A    between atoms: _430  and  _433
REMARK  163  A    between atoms: _433  and  _434
REMARK  164  A    between atoms: _434  and  _435
REMARK  165  A    between atoms: _435  and  _436
REMARK  166  A    between atoms: _436  and  _437
REMARK                            x       y       z     vdW  Elec       q    Type
REMARK                         _______ _______ _______ _____ _____    ______ ____
ROOT
ATOM      1  CA  THR A   1       5.282  23.305  -4.644  0.00  0.00    +0.160 C 
ENDROOT
BRANCH   1   2
ATOM      2  N   THR A   1       4.060  23.353  -5.438  0.00  0.00    -0.237 NA
ATOM      3  H   THR A   1       3.741  24.272  -5.805  0.00  0.00    +0.142 HD
ENDBRANCH   1   2
BRANCH   1   4
ATOM      4  C   THR A   1       4.927  23.766  -3.247  0.00  0.00    +0.227 C 
ATOM      5  O   THR A   1       4.299  24.810  -3.058  0.00  0.00    -0.287 OA
ENDBRANCH   1   4
BRANCH   1   6
ATOM      6  CB  THR A   1       6.390  24.223  -5.208  0.00  0.00    +0.134 C 
ATOM      7  CG2 THR A   1       7.696  24.093  -4.384  0.00  0.00    +0.034 C 
BRANCH   6   8
ATOM      8  OG1 THR A   1       6.648  23.874  -6.576  0.00  0.00    -0.383 OA
ATOM      9  HG1 THR A   1       5.820  23.990  -7.107  0.00  0.00    +0.210 HD
ENDBRANCH   6   8
ENDBRANCH   1   6
TORSDOF 4
REMARK  Name = ../refined-set-2016/3ouj/3ouj_pocket.pdb
REMARK  166 active torsions:
REMARK  status: ('A' for Active; 'I' for Inactive)
REMARK    1  A    between atoms: _1  and  _3
REMARK    2  A    between atoms: _3  and  _4
REMARK    3  A    between atoms: _3  and  _6
REMARK    4  A    between atoms: _6  and  _7
REMARK    5  A    between atoms: _9  and  _11
REMARK    6  A    between atoms: _11  and  _12
REMARK    7  A    between atoms: _11  and  _14
REMARK    8  A    between atoms: _14  and  _15
REMARK    9  A    between atoms: _15  and  _16
REMARK   10  A    between atoms: _16  and  _17
REMARK   11  A    between atoms: _26  and  _28
REMARK   12  A    between atoms: _28  and  _29
REMARK   13  A    between atoms: _28  and  _31
REMARK   14  A    between atoms: _31  and  _32
REMARK   15  A    between atoms: _35  and  _37
REMARK   16  A    between atoms: _37  and  _38
REMARK   17  A    between atoms: _37  and  _40
REMARK   18  A    between atoms: _40  and  _41
REMARK   19  A    between atoms: _44  and  _46
REMARK   20  A    between atoms: _46  and  _47
REMARK   21  A    between atoms: _46  and  _49
REMARK   22  A    between atoms: _49  and  _50
REMARK   23  A    between atoms: _50  and  _51
REMARK   24  A    between atoms: _53  and  _55
REMARK   25  A    between atoms: _55  and  _56
REMARK   26  A    between atoms: _59  and  _61
REMARK   27  A    between atoms: _61  and  _62
REMARK   28  A    between atoms: _61  and  _64
REMARK   29  A    between atoms: _66  and  _68
REMARK   30  A    between atoms: _68  and  _69
REMARK   31  A    between atoms: _68  and  _71
REMARK   32  A    between atoms: _71  and  _72
REMARK   33  A    between atoms: _77  and  _78
REMARK   34  A    between atoms: _80  and  _82
REMARK   35  A    between atoms: _82  and  _83
REMARK   36  A    between atoms: _85  and  _87
REMARK   37  A    between atoms: _87  and  _88
REMARK   38  A    between atoms: _87  and  _90
REMARK   39  A    between atoms: _90  and  _91
REMARK   40  A    between atoms: _96  and  _97
REMARK   41  A    between atoms: _99  and  _101
REMARK   42  A    between atoms: _101  and  _102
REMARK   43  A    between atoms: _101  and  _104
REMARK   44  A    between atoms: _107  and  _109
REMARK   45  A    between atoms: _120  and  _123
REMARK   46  A    between atoms: _128  and  _129
REMARK   47  A    between atoms: _135  and  _137
REMARK   48  A    between atoms: _137  and  _138
REMARK   49  A    between atoms: _137  and  _140
REMARK   50  A    between atoms: _140  and  _141
REMARK   51  A    between atoms: _141  and  _142
REMARK   52  A    between atoms: _142  and  _143
REMARK   53  A    between atoms: _152  and  _154
REMARK   54  A    between atoms: _154  and  _155
REMARK   55  A    between atoms: _154  and  _157
REMARK   56  A    between atoms: _157  and  _158
REMARK   57  A    between atoms: _161  and  _163
REMARK   58  A    between atoms: _163  and  _164
REMARK   59  A    between atoms: _163  and  _166
REMARK   60  A    between atoms: _166  and  _167
REMARK   61  A    between atoms: _170  and  _172
REMARK   62  A    between atoms: _172  and  _173
REMARK   63  A    between atoms: _172  and  _175
REMARK   64  A    between atoms: _175  and  _176
REMARK   65  A    between atoms: _181  and  _182
REMARK   66  A    between atoms: _184  and  _186
REMARK   67  A    between atoms: _186  and  _187
REMARK   68  A    between atoms: _186  and  _189
REMARK   69  A    between atoms: _189  and  _190
REMARK   70  A    between atoms: _195  and  _196
REMARK   71  A    between atoms: _198  and  _200
REMARK   72  A    between atoms: _200  and  _201
REMARK   73  A    between atoms: _200  and  _203
REMARK   74  A    between atoms: _203  and  _204
REMARK   75  A    between atoms: _209  and  _211
REMARK   76  A    between atoms: _211  and  _212
REMARK   77  A    between atoms: _214  and  _216
REMARK   78  A    between atoms: _216  and  _217
REMARK   79  A    between atoms: _216  and  _219
REMARK   80  A    between atoms: _219  and  _220
REMARK   81  A    between atoms: _223  and  _225
REMARK   82  A    between atoms: _225  and  _226
REMARK   83  A    between atoms: _225  and  _228
REMARK   84  A    between atoms: _228  and  _229
REMARK   85  A    between atoms: _232  and  _234
REMARK   86  A    between atoms: _234  and  _235
REMARK   87  A    between atoms: _234  and  _237
REMARK   88  A    between atoms: _237  and  _238
REMARK   89  A    between atoms: _238  and  _239
REMARK   90  A    between atoms: _239  and  _240
REMARK   91  A    between atoms: _249  and  _251
REMARK   92  A    between atoms: _251  and  _252
REMARK   93  A    between atoms: _251  and  _254
REMARK   94  A    between atoms: _254  and  _255
REMARK   95  A    between atoms: _258  and  _260
REMARK   96  A    between atoms: _260  and  _261
REMARK   97  A    between atoms: _260  and  _263
REMARK   98  A    between atoms: _263  and  _264
REMARK   99  A    between atoms: _267  and  _269
REMARK  100  A    between atoms: _269  and  _270
REMARK  101  A    between atoms: _269  and  _272
REMARK  102  A    between atoms: _272  and  _273
REMARK  103  A    between atoms: _273  and  _274
REMARK  104  A    between atoms: _278  and  _279
REMARK  105  A    between atoms: _284  and  _286
REMARK  106  A    between atoms: _286  and  _287
REMARK  107  A    between atoms: _286  and  _289
REMARK  108  A    between atoms: _289  and  _290
REMARK  109  A    between atoms: _293  and  _295
REMARK  110  A    between atoms: _295  and  _296
REMARK  111  A    between atoms: _295  and  _298
REMARK  112  A    between atoms: _298  and  _299
REMARK  113  A    between atoms: _305  and  _307
REMARK  114  A    between atoms: _307  and  _308
REMARK  115  A    between atoms: _307  and  _310
REMARK  116  A    between atoms: _310  and  _311
REMARK  117  A    between atoms: _316  and  _318
REMARK  118  A    between atoms: _318  and  _319
REMARK  119  A    between atoms: _318  and  _321
REMARK  120  A    between atoms: _321  and  _322
REMARK  121  A    between atoms: _326  and  FE_441
REMARK  122  A    between atoms: _327  and  _329
REMARK  123  A    between atoms: _329  and  _330
REMARK  124  A    between atoms: _329  and  _332
REMARK  125  A    between atoms: _332  and  _333
REMARK  126  A    between atoms: _333  and  _334
REMARK  127  A    between atoms: _337  and  _339
REMARK  128  A    between atoms: _339  and  _340
REMARK  129  A    between atoms: _339  and  _342
REMARK  130  A    between atoms: _345  and  _347
REMARK  131  A    between atoms: _347  and  _348
REMARK  132  A    between atoms: _347  and  _350
REMARK  133  A    between atoms: _350  and  _351
REMARK  134  A    between atoms: _351  and  _352
REMARK  135  A    between atoms: _357  and  _359
REMARK  136  A    between atoms: _359  and  _360
REMARK  137  A    between atoms: _359  and  _362
REMARK  138  A    between atoms: _362  and  _363
REMARK  139  A    between atoms: _363  and  _364
REMARK  140  A    between atoms: _364  and  _365
REMARK  141  A    between atoms: _374  and  _376
REMARK  142  A    between atoms: _376  and  _377
REMARK  143  A    between atoms: _376  and  _379
REMARK  144  A    between atoms: _379  and  _380
REMARK  145  A    between atoms: _385  and  _386
REMARK  146  A    between atoms: _388  and  _390
REMARK  147  A    between atoms: _390  and  _391
REMARK  148  A    between atoms: _394  and  _396
REMARK  149  A    between atoms: _396  and  _397
REMARK  150  A    between atoms: _396  and  _399
REMARK  151  A    between atoms: _399  and  _400
REMARK  152  A    between atoms: _403  and  _405
REMARK  153  A    between atoms: _405  and  _406
REMARK  154  A    between atoms: _405  and  _408
REMARK  155  A    between atoms: _408  and  _409
REMARK  156  A    between atoms: _412  and  _414
REMARK  157  A    between atoms: _414  and  _415
REMARK  158  A    between atoms: _414  and  _417
REMARK  159  A    between atoms: _417  and  _418
REMARK  160  A    between atoms: _428  and  _430
REMARK  161  A    between atoms: _430  and  _431
REMARK  162  A    between atoms: _430  and  _433
REMARK  163  A    between atoms: _433  and  _434
REMARK  164  A    between atoms: _434  and  _435
REMARK  165  A    between atoms: _435  and  _436
REMARK  166  A    between atoms: _436  and  _437
REMARK                            x       y       z     vdW  Elec       q    Type
REMARK                         _______ _______ _______ _____ _____    ______ ____
ROOT
ATOM      1  CA  TYR A   2       8.651  24.538   4.911  0.00  0.00    +0.153 C 
ENDROOT
BRANCH   1   3
ATOM      2  C   ILE A   1       7.916  24.890   2.595  0.00  0.00    +0.238 C 
ATOM      3  N   TYR A   2       8.633  24.213   3.490  0.00  0.00    -0.297 N 
ATOM      4  H   TYR A   2       9.209  23.413   3.159  0.00  0.00    +0.150 HD
ATOM      5  O   ILE A   1       7.128  25.777   2.899  0.00  0.00    -0.274 OA
BRANCH   2   6
ATOM      6  CA  ILE A   1       8.117  24.499   1.122  0.00  0.00    +0.145 C 
BRANCH   6   7
ATOM      7  N   ILE A   1       6.820  24.342   0.444  0.00  0.00    -0.238 NA
ATOM      8  H   ILE A   1       6.161  25.147   0.432  0.00  0.00    +0.142 HD
ENDBRANCH   6   7
BRANCH   6   9
ATOM      9  CB  ILE A   1       8.984  25.573   0.429  0.00  0.00    +0.025 C 
ATOM     10  CG2 ILE A   1      10.308  25.755   1.185  0.00  0.00    +0.002 C 
BRANCH   9  11
ATOM     11  CG1 ILE A   1       9.209  25.195  -1.048  0.00  0.00    +0.002 C 
ATOM     12  CD1 ILE A   1      10.045  26.165  -1.878  0.00  0.00    +0.000 C 
ENDBRANCH   9  11
ENDBRANCH   6   9
ENDBRANCH   2   6
ENDBRANCH   1   3
BRANCH   1  13
ATOM     13  C   TYR A   2      10.040  25.058   5.313  0.00  0.00    +0.241 C 
ATOM     14  N   TYR A   3      10.110  26.222   5.972  0.00  0.00    -0.298 N 
ATOM     15  H   TYR A   3       9.235  26.745   6.175  0.00  0.00    +0.150 HD
ATOM     16  O   TYR A   2      11.036  24.392   5.038  0.00  0.00    -0.273 OA
BRANCH  14  17
ATOM     17  CA  TYR A   3      11.408  26.779   6.417  0.00  0.00    +0.141 C 
BRANCH  17  18
ATOM     18  C   TYR A   3      11.609  26.587   7.927  0.00  0.00    +0.227 C 
ATOM     19  O   TYR A   3      10.651  26.573   8.695  0.00  0.00    -0.286 OA
ENDBRANCH  17  18
BRANCH  17  20
ATOM     20  CB  TYR A   3      11.546  28.256   6.033  0.00  0.00    +0.054 C 
BRANCH  20  21
ATOM     21  CG  TYR A   3      11.406  28.543   4.546  0.00  0.00    -0.020 A 
ATOM     22  CD2 TYR A   3      10.189  28.971   4.015  0.00  0.00    -0.001 A 
ATOM     23  CE2 TYR A   3      10.034  29.230   2.658  0.00  0.00    +0.036 A 
ATOM     24  CZ  TYR A   3      11.114  29.068   1.798  0.00  0.00    +0.134 A 
ATOM     25  CE1 TYR A   3      12.349  28.646   2.294  0.00  0.00    +0.036 A 
ATOM     26  CD1 TYR A   3      12.488  28.384   3.666  0.00  0.00    -0.001 A 
BRANCH  24  27
ATOM     27  OH  TYR A   3      10.939  29.340   0.449  0.00  0.00    -0.506 OA
ATOM     28  HH  TYR A   3      11.790  29.180  -0.032  0.00  0.00    +0.292 HD
ENDBRANCH  24  27
ENDBRANCH  20  21
ENDBRANCH  17  20
ENDBRANCH  14  17
ENDBRANCH   1  13
BRANCH   1  29
ATOM     29  CB  TYR A   2       8.306  23.285   5.732  0.00  0.00    +0.055 C 
BRANCH  29  30
ATOM     30  CG  TYR A   2       8.315  23.495   7.242  0.00  0.00    -0.020 A 
ATOM     31  CD2 TYR A   2       9.378  23.051   8.021  0.00  0.00    -0.001 A 
ATOM     32  CE2 TYR A   2       9.386  23.230   9.402  0.00  0.00    +0.036 A 
ATOM     33  CZ  TYR A   2       8.315  23.864  10.014  0.00  0.00    +0.134 A 
ATOM     34  CE1 TYR A   2       7.244  24.331   9.250  0.00  0.00    +0.036 A 
ATOM     35  CD1 TYR A   2       7.256  24.146   7.880  0.00  0.00    -0.001 A 
BRANCH  33  36
ATOM     36  OH  TYR A   2       8.320  24.070  11.368  0.00  0.00    -0.506 OA
ATOM     37  HH  TYR A   2       7.485  24.532  11.633  0.00  0.00    +0.292 HD
ENDBRANCH  33  36
ENDBRANCH  29  30
ENDBRANCH   1  29
TORSDOF 14
REMARK  Name = ../refined-set-2016/3ouj/3ouj_pocket.pdb
REMARK  166 active torsions:
REMARK  status: ('A' for Active; 'I' for Inactive)
REMARK    1  A    between atoms: _1  and  _3
REMARK    2  A    between atoms: _3  and  _4
REMARK    3  A    between atoms: _3  and  _6
REMARK    4  A    between atoms: _6  and  _7
REMARK    5  A    between atoms: _9  and  _11
REMARK    6  A    between atoms: _11  and  _12
REMARK    7  A    between atoms: _11  and  _14
REMARK    8  A    between atoms: _14  and  _15
REMARK    9  A    between atoms: _15  and  _16
REMARK   10  A    between atoms: _16  and  _17
REMARK   11  A    between atoms: _26  and  _28
REMARK   12  A    between atoms: _28  and  _29
REMARK   13  A    between atoms: _28  and  _31
REMARK   14  A    between atoms: _31  and  _32
REMARK   15  A    between atoms: _35  and  _37
REMARK   16  A    between atoms: _37  and  _38
REMARK   17  A    between atoms: _37  and  _40
REMARK   18  A    between atoms: _40  and  _41
REMARK   19  A    between atoms: _44  and  _46
REMARK   20  A    between atoms: _46  and  _47
REMARK   21  A    between atoms: _46  and  _49
REMARK   22  A    between atoms: _49  and  _50
REMARK   23  A    between atoms: _50  and  _51
REMARK   24  A    between atoms: _53  and  _55
REMARK   25  A    between atoms: _55  and  _56
REMARK   26  A    between atoms: _59  and  _61
REMARK   27  A    between atoms: _61  and  _62
REMARK   28  A    between atoms: _61  and  _64
REMARK   29  A    between atoms: _66  and  _68
REMARK   30  A    between atoms: _68  and  _69
REMARK   31  A    between atoms: _68  and  _71
REMARK   32  A    between atoms: _71  and  _72
REMARK   33  A    between atoms: _77  and  _78
REMARK   34  A    between atoms: _80  and  _82
REMARK   35  A    between atoms: _82  and  _83
REMARK   36  A    between atoms: _85  and  _87
REMARK   37  A    between atoms: _87  and  _88
REMARK   38  A    between atoms: _87  and  _90
REMARK   39  A    between atoms: _90  and  _91
REMARK   40  A    between atoms: _96  and  _97
REMARK   41  A    between atoms: _99  and  _101
REMARK   42  A    between atoms: _101  and  _102
REMARK   43  A    between atoms: _101  and  _104
REMARK   44  A    between atoms: _107  and  _109
REMARK   45  A    between atoms: _120  and  _123
REMARK   46  A    between atoms: _128  and  _129
REMARK   47  A    between atoms: _135  and  _137
REMARK   48  A    between atoms: _137  and  _138
REMARK   49  A    between atoms: _137  and  _140
REMARK   50  A    between atoms: _140  and  _141
REMARK   51  A    between atoms: _141  and  _142
REMARK   52  A    between atoms: _142  and  _143
REMARK   53  A    between atoms: _152  and  _154
REMARK   54  A    between atoms: _154  and  _155
REMARK   55  A    between atoms: _154  and  _157
REMARK   56  A    between atoms: _157  and  _158
REMARK   57  A    between atoms: _161  and  _163
REMARK   58  A    between atoms: _163  and  _164
REMARK   59  A    between atoms: _163  and  _166
REMARK   60  A    between atoms: _166  and  _167
REMARK   61  A    between atoms: _170  and  _172
REMARK   62  A    between atoms: _172  and  _173
REMARK   63  A    between atoms: _172  and  _175
REMARK   64  A    between atoms: _175  and  _176
REMARK   65  A    between atoms: _181  and  _182
REMARK   66  A    between atoms: _184  and  _186
REMARK   67  A    between atoms: _186  and  _187
REMARK   68  A    between atoms: _186  and  _189
REMARK   69  A    between atoms: _189  and  _190
REMARK   70  A    between atoms: _195  and  _196
REMARK   71  A    between atoms: _198  and  _200
REMARK   72  A    between atoms: _200  and  _201
REMARK   73  A    between atoms: _200  and  _203
REMARK   74  A    between atoms: _203  and  _204
REMARK   75  A    between atoms: _209  and  _211
REMARK   76  A    between atoms: _211  and  _212
REMARK   77  A    between atoms: _214  and  _216
REMARK   78  A    between atoms: _216  and  _217
REMARK   79  A    between atoms: _216  and  _219
REMARK   80  A    between atoms: _219  and  _220
REMARK   81  A    between atoms: _223  and  _225
REMARK   82  A    between atoms: _225  and  _226
REMARK   83  A    between atoms: _225  and  _228
REMARK   84  A    between atoms: _228  and  _229
REMARK   85  A    between atoms: _232  and  _234
REMARK   86  A    between atoms: _234  and  _235
REMARK   87  A    between atoms: _234  and  _237
REMARK   88  A    between atoms: _237  and  _238
REMARK   89  A    between atoms: _238  and  _239
REMARK   90  A    between atoms: _239  and  _240
REMARK   91  A    between atoms: _249  and  _251
REMARK   92  A    between atoms: _251  and  _252
REMARK   93  A    between atoms: _251  and  _254
REMARK   94  A    between atoms: _254  and  _255
REMARK   95  A    between atoms: _258  and  _260
REMARK   96  A    between atoms: _260  and  _261
REMARK   97  A    between atoms: _260  and  _263
REMARK   98  A    between atoms: _263  and  _264
REMARK   99  A    between atoms: _267  and  _269
REMARK  100  A    between atoms: _269  and  _270
REMARK  101  A    between atoms: _269  and  _272
REMARK  102  A    between atoms: _272  and  _273
REMARK  103  A    between atoms: _273  and  _274
REMARK  104  A    between atoms: _278  and  _279
REMARK  105  A    between atoms: _284  and  _286
REMARK  106  A    between atoms: _286  and  _287
REMARK  107  A    between atoms: _286  and  _289
REMARK  108  A    between atoms: _289  and  _290
REMARK  109  A    between atoms: _293  and  _295
REMARK  110  A    between atoms: _295  and  _296
REMARK  111  A    between atoms: _295  and  _298
REMARK  112  A    between atoms: _298  and  _299
REMARK  113  A    between atoms: _305  and  _307
REMARK  114  A    between atoms: _307  and  _308
REMARK  115  A    between atoms: _307  and  _310
REMARK  116  A    between atoms: _310  and  _311
REMARK  117  A    between atoms: _316  and  _318
REMARK  118  A    between atoms: _318  and  _319
REMARK  119  A    between atoms: _318  and  _321
REMARK  120  A    between atoms: _321  and  _322
REMARK  121  A    between atoms: _326  and  FE_441
REMARK  122  A    between atoms: _327  and  _329
REMARK  123  A    between atoms: _329  and  _330
REMARK  124  A    between atoms: _329  and  _332
REMARK  125  A    between atoms: _332  and  _333
REMARK  126  A    between atoms: _333  and  _334
REMARK  127  A    between atoms: _337  and  _339
REMARK  128  A    between atoms: _339  and  _340
REMARK  129  A    between atoms: _339  and  _342
REMARK  130  A    between atoms: _345  and  _347
REMARK  131  A    between atoms: _347  and  _348
REMARK  132  A    between atoms: _347  and  _350
REMARK  133  A    between atoms: _350  and  _351
REMARK  134  A    between atoms: _351  and  _352
REMARK  135  A    between atoms: _357  and  _359
REMARK  136  A    between atoms: _359  and  _360
REMARK  137  A    between atoms: _359  and  _362
REMARK  138  A    between atoms: _362  and  _363
REMARK  139  A    between atoms: _363  and  _364
REMARK  140  A    between atoms: _364  and  _365
REMARK  141  A    between atoms: _374  and  _376
REMARK  142  A    between atoms: _376  and  _377
REMARK  143  A    between atoms: _376  and  _379
REMARK  144  A    between atoms: _379  and  _380
REMARK  145  A    between atoms: _385  and  _386
REMARK  146  A    between atoms: _388  and  _390
REMARK  147  A    between atoms: _390  and  _391
REMARK  148  A    between atoms: _394  and  _396
REMARK  149  A    between atoms: _396  and  _397
REMARK  150  A    between atoms: _396  and  _399
REMARK  151  A    between atoms: _399  and  _400
REMARK  152  A    between atoms: _403  and  _405
REMARK  153  A    between atoms: _405  and  _406
REMARK  154  A    between atoms: _405  and  _408
REMARK  155  A    between atoms: _408  and  _409
REMARK  156  A    between atoms: _412  and  _414
REMARK  157  A    between atoms: _414  and  _415
REMARK  158  A    between atoms: _414  and  _417
REMARK  159  A    between atoms: _417  and  _418
REMARK  160  A    between atoms: _428  and  _430
REMARK  161  A    between atoms: _430  and  _431
REMARK  162  A    between atoms: _430  and  _433
REMARK  163  A    between atoms: _433  and  _434
REMARK  164  A    between atoms: _434  and  _435
REMARK  165  A    between atoms: _435  and  _436
REMARK  166  A    between atoms: _436  and  _437
REMARK                            x       y       z     vdW  Elec       q    Type
REMARK                         _______ _______ _______ _____ _____    ______ ____
ROOT
ATOM      1  CB  ASN A   1      16.392  29.577   8.999  0.00  0.00    +0.110 C 
ENDROOT
BRANCH   1   2
ATOM      2  CG  ASN A   1      16.535  28.621   7.833  0.00  0.00    +0.221 C 
ATOM      3  OD1 ASN A   1      17.388  27.729   7.848  0.00  0.00    -0.275 OA
ATOM      4  ND2 ASN A   1      15.677  28.779   6.823  0.00  0.00    -0.329 N 
ATOM      5 HD21 ASN A   1      14.974  29.545   6.853  0.00  0.00    +0.145 HD
ATOM      6 HD22 ASN A   1      15.711  28.136   6.006  0.00  0.00    +0.145 HD
ENDBRANCH   1   2
BRANCH   1   7
ATOM      7  CA  ASN A   1      15.763  28.909  10.222  0.00  0.00    +0.142 C 
BRANCH   7   8
ATOM      8  N   ASN A   1      14.596  28.121   9.804  0.00  0.00    -0.239 NA
ATOM      9  H   ASN A   1      13.966  28.496   9.066  0.00  0.00    +0.142 HD
ENDBRANCH   7   8
BRANCH   7  10
ATOM     10  C   ASN A   1      15.449  29.941  11.324  0.00  0.00    +0.225 C 
ATOM     11  O   ASN A   1      14.971  31.026  11.035  0.00  0.00    -0.287 OA
ENDBRANCH   7  10
ENDBRANCH   1   7
TORSDOF 4
REMARK  Name = ../refined-set-2016/3ouj/3ouj_pocket.pdb
REMARK  166 active torsions:
REMARK  status: ('A' for Active; 'I' for Inactive)
REMARK    1  A    between atoms: _1  and  _3
REMARK    2  A    between atoms: _3  and  _4
REMARK    3  A    between atoms: _3  and  _6
REMARK    4  A    between atoms: _6  and  _7
REMARK    5  A    between atoms: _9  and  _11
REMARK    6  A    between atoms: _11  and  _12
REMARK    7  A    between atoms: _11  and  _14
REMARK    8  A    between atoms: _14  and  _15
REMARK    9  A    between atoms: _15  and  _16
REMARK   10  A    between atoms: _16  and  _17
REMARK   11  A    between atoms: _26  and  _28
REMARK   12  A    between atoms: _28  and  _29
REMARK   13  A    between atoms: _28  and  _31
REMARK   14  A    between atoms: _31  and  _32
REMARK   15  A    between atoms: _35  and  _37
REMARK   16  A    between atoms: _37  and  _38
REMARK   17  A    between atoms: _37  and  _40
REMARK   18  A    between atoms: _40  and  _41
REMARK   19  A    between atoms: _44  and  _46
REMARK   20  A    between atoms: _46  and  _47
REMARK   21  A    between atoms: _46  and  _49
REMARK   22  A    between atoms: _49  and  _50
REMARK   23  A    between atoms: _50  and  _51
REMARK   24  A    between atoms: _53  and  _55
REMARK   25  A    between atoms: _55  and  _56
REMARK   26  A    between atoms: _59  and  _61
REMARK   27  A    between atoms: _61  and  _62
REMARK   28  A    between atoms: _61  and  _64
REMARK   29  A    between atoms: _66  and  _68
REMARK   30  A    between atoms: _68  and  _69
REMARK   31  A    between atoms: _68  and  _71
REMARK   32  A    between atoms: _71  and  _72
REMARK   33  A    between atoms: _77  and  _78
REMARK   34  A    between atoms: _80  and  _82
REMARK   35  A    between atoms: _82  and  _83
REMARK   36  A    between atoms: _85  and  _87
REMARK   37  A    between atoms: _87  and  _88
REMARK   38  A    between atoms: _87  and  _90
REMARK   39  A    between atoms: _90  and  _91
REMARK   40  A    between atoms: _96  and  _97
REMARK   41  A    between atoms: _99  and  _101
REMARK   42  A    between atoms: _101  and  _102
REMARK   43  A    between atoms: _101  and  _104
REMARK   44  A    between atoms: _107  and  _109
REMARK   45  A    between atoms: _120  and  _123
REMARK   46  A    between atoms: _128  and  _129
REMARK   47  A    between atoms: _135  and  _137
REMARK   48  A    between atoms: _137  and  _138
REMARK   49  A    between atoms: _137  and  _140
REMARK   50  A    between atoms: _140  and  _141
REMARK   51  A    between atoms: _141  and  _142
REMARK   52  A    between atoms: _142  and  _143
REMARK   53  A    between atoms: _152  and  _154
REMARK   54  A    between atoms: _154  and  _155
REMARK   55  A    between atoms: _154  and  _157
REMARK   56  A    between atoms: _157  and  _158
REMARK   57  A    between atoms: _161  and  _163
REMARK   58  A    between atoms: _163  and  _164
REMARK   59  A    between atoms: _163  and  _166
REMARK   60  A    between atoms: _166  and  _167
REMARK   61  A    between atoms: _170  and  _172
REMARK   62  A    between atoms: _172  and  _173
REMARK   63  A    between atoms: _172  and  _175
REMARK   64  A    between atoms: _175  and  _176
REMARK   65  A    between atoms: _181  and  _182
REMARK   66  A    between atoms: _184  and  _186
REMARK   67  A    between atoms: _186  and  _187
REMARK   68  A    between atoms: _186  and  _189
REMARK   69  A    between atoms: _189  and  _190
REMARK   70  A    between atoms: _195  and  _196
REMARK   71  A    between atoms: _198  and  _200
REMARK   72  A    between atoms: _200  and  _201
REMARK   73  A    between atoms: _200  and  _203
REMARK   74  A    between atoms: _203  and  _204
REMARK   75  A    between atoms: _209  and  _211
REMARK   76  A    between atoms: _211  and  _212
REMARK   77  A    between atoms: _214  and  _216
REMARK   78  A    between atoms: _216  and  _217
REMARK   79  A    between atoms: _216  and  _219
REMARK   80  A    between atoms: _219  and  _220
REMARK   81  A    between atoms: _223  and  _225
REMARK   82  A    between atoms: _225  and  _226
REMARK   83  A    between atoms: _225  and  _228
REMARK   84  A    between atoms: _228  and  _229
REMARK   85  A    between atoms: _232  and  _234
REMARK   86  A    between atoms: _234  and  _235
REMARK   87  A    between atoms: _234  and  _237
REMARK   88  A    between atoms: _237  and  _238
REMARK   89  A    between atoms: _238  and  _239
REMARK   90  A    between atoms: _239  and  _240
REMARK   91  A    between atoms: _249  and  _251
REMARK   92  A    between atoms: _251  and  _252
REMARK   93  A    between atoms: _251  and  _254
REMARK   94  A    between atoms: _254  and  _255
REMARK   95  A    between atoms: _258  and  _260
REMARK   96  A    between atoms: _260  and  _261
REMARK   97  A    between atoms: _260  and  _263
REMARK   98  A    between atoms: _263  and  _264
REMARK   99  A    between atoms: _267  and  _269
REMARK  100  A    between atoms: _269  and  _270
REMARK  101  A    between atoms: _269  and  _272
REMARK  102  A    between atoms: _272  and  _273
REMARK  103  A    between atoms: _273  and  _274
REMARK  104  A    between atoms: _278  and  _279
REMARK  105  A    between atoms: _284  and  _286
REMARK  106  A    between atoms: _286  and  _287
REMARK  107  A    between atoms: _286  and  _289
REMARK  108  A    between atoms: _289  and  _290
REMARK  109  A    between atoms: _293  and  _295
REMARK  110  A    between atoms: _295  and  _296
REMARK  111  A    between atoms: _295  and  _298
REMARK  112  A    between atoms: _298  and  _299
REMARK  113  A    between atoms: _305  and  _307
REMARK  114  A    between atoms: _307  and  _308
REMARK  115  A    between atoms: _307  and  _310
REMARK  116  A    between atoms: _310  and  _311
REMARK  117  A    between atoms: _316  and  _318
REMARK  118  A    between atoms: _318  and  _319
REMARK  119  A    between atoms: _318  and  _321
REMARK  120  A    between atoms: _321  and  _322
REMARK  121  A    between atoms: _326  and  FE_441
REMARK  122  A    between atoms: _327  and  _329
REMARK  123  A    between atoms: _329  and  _330
REMARK  124  A    between atoms: _329  and  _332
REMARK  125  A    between atoms: _332  and  _333
REMARK  126  A    between atoms: _333  and  _334
REMARK  127  A    between atoms: _337  and  _339
REMARK  128  A    between atoms: _339  and  _340
REMARK  129  A    between atoms: _339  and  _342
REMARK  130  A    between atoms: _345  and  _347
REMARK  131  A    between atoms: _347  and  _348
REMARK  132  A    between atoms: _347  and  _350
REMARK  133  A    between atoms: _350  and  _351
REMARK  134  A    between atoms: _351  and  _352
REMARK  135  A    between atoms: _357  and  _359
REMARK  136  A    between atoms: _359  and  _360
REMARK  137  A    between atoms: _359  and  _362
REMARK  138  A    between atoms: _362  and  _363
REMARK  139  A    between atoms: _363  and  _364
REMARK  140  A    between atoms: _364  and  _365
REMARK  141  A    between atoms: _374  and  _376
REMARK  142  A    between atoms: _376  and  _377
REMARK  143  A    between atoms: _376  and  _379
REMARK  144  A    between atoms: _379  and  _380
REMARK  145  A    between atoms: _385  and  _386
REMARK  146  A    between atoms: _388  and  _390
REMARK  147  A    between atoms: _390  and  _391
REMARK  148  A    between atoms: _394  and  _396
REMARK  149  A    between atoms: _396  and  _397
REMARK  150  A    between atoms: _396  and  _399
REMARK  151  A    between atoms: _399  and  _400
REMARK  152  A    between atoms: _403  and  _405
REMARK  153  A    between atoms: _405  and  _406
REMARK  154  A    between atoms: _405  and  _408
REMARK  155  A    between atoms: _408  and  _409
REMARK  156  A    between atoms: _412  and  _414
REMARK  157  A    between atoms: _414  and  _415
REMARK  158  A    between atoms: _414  and  _417
REMARK  159  A    between atoms: _417  and  _418
REMARK  160  A    between atoms: _428  and  _430
REMARK  161  A    between atoms: _430  and  _431
REMARK  162  A    between atoms: _430  and  _433
REMARK  163  A    between atoms: _433  and  _434
REMARK  164  A    between atoms: _434  and  _435
REMARK  165  A    between atoms: _435  and  _436
REMARK  166  A    between atoms: _436  and  _437
REMARK                            x       y       z     vdW  Elec       q    Type
REMARK                         _______ _______ _______ _____ _____    ______ ____
ROOT
ATOM      1  C   LEU A   3      12.126  34.640  -2.786  0.00  0.00    +0.241 C 
ATOM      2  O   LEU A   3      11.224  35.208  -2.148  0.00  0.00    -0.273 OA
ATOM      3  N   ARG A   4      12.468  34.951  -4.036  0.00  0.00    -0.297 N 
ATOM      4  H   ARG A   4      13.264  34.452  -4.481  0.00  0.00    +0.150 HD
ENDROOT
BRANCH   3   5
ATOM      5  CA  ARG A   4      11.762  35.963  -4.790  0.00  0.00    +0.149 C 
BRANCH   5   6
ATOM      6  C   ARG A   4      10.988  35.270  -5.892  0.00  0.00    +0.241 C 
ATOM      7  N   ILE A   5       9.685  35.502  -5.925  0.00  0.00    -0.298 N 
ATOM      8  H   ILE A   5       9.271  36.167  -5.241  0.00  0.00    +0.150 HD
ATOM      9  O   ARG A   4      11.553  34.515  -6.671  0.00  0.00    -0.273 OA
BRANCH   7  10
ATOM     10  CA  ILE A   5       8.813  34.847  -6.898  0.00  0.00    +0.137 C 
BRANCH  10  11
ATOM     11  C   ILE A   5       8.253  35.921  -7.834  0.00  0.00    +0.227 C 
ATOM     12  O   ILE A   5       7.809  36.976  -7.363  0.00  0.00    -0.286 OA
ENDBRANCH  10  11
BRANCH  10  13
ATOM     13  CB  ILE A   5       7.635  34.104  -6.215  0.00  0.00    +0.026 C 
ATOM     14  CG2 ILE A   5       6.808  33.330  -7.258  0.00  0.00    +0.002 C 
BRANCH  13  15
ATOM     15  CG1 ILE A   5       8.151  33.175  -5.102  0.00  0.00    +0.002 C 
ATOM     16  CD1 ILE A   5       7.075  32.552  -4.295  0.00  0.00    +0.000 C 
ENDBRANCH  13  15
ENDBRANCH  10  13
ENDBRANCH   7  10
ENDBRANCH   5   6
BRANCH   5  17
ATOM     17  CB  ARG A   4      12.717  37.020  -5.367  0.00  0.00    +0.033 C 
BRANCH  17  18
ATOM     18  CG  ARG A   4      11.979  38.189  -6.030  0.00  0.00    +0.045 C 
BRANCH  18  19
ATOM     19  CD  ARG A   4      12.850  39.404  -6.240  0.00  0.00    +0.174 C 
BRANCH  19  20
ATOM     20  NE  ARG A   4      13.028  40.166  -5.009  0.00  0.00    -0.265 N 
ATOM     21  HE  ARG A   4      12.394  39.951  -4.213  0.00  0.00    +0.259 HD
ATOM     22  CZ  ARG A   4      13.944  41.117  -4.831  0.00  0.00    +0.342 C 
ATOM     23  NH2 ARG A   4      14.018  41.738  -3.664  0.00  0.00    -0.292 N 
ATOM     24 HH21 ARG A   4      13.365  41.482  -2.896  0.00  0.00    +0.255 HD
ATOM     25 HH22 ARG A   4      14.729  42.482  -3.515  0.00  0.00    +0.255 HD
ATOM     26  NH1 ARG A   4      14.794  41.439  -5.804  0.00  0.00    -0.292 N 
ATOM     27 HH11 ARG A   4      15.503  42.184  -5.649  0.00  0.00    +0.255 HD
ATOM     28 HH12 ARG A   4      14.749  40.946  -6.719  0.00  0.00    +0.255 HD
ENDBRANCH  19  20
ENDBRANCH  18  19
ENDBRANCH  17  18
ENDBRANCH   5  17
ENDBRANCH   3   5
BRANCH   1  29
ATOM     29  CA  LEU A   3      12.938  33.542  -2.137  0.00  0.00    +0.149 C 
BRANCH  29  31
ATOM     30  C   ILE A   2      14.745  34.735  -1.038  0.00  0.00    +0.241 C 
ATOM     31  N   LEU A   3      13.550  34.155  -0.973  0.00  0.00    -0.297 N 
ATOM     32  H   LEU A   3      13.042  34.140  -0.066  0.00  0.00    +0.150 HD
ATOM     33  O   ILE A   2      15.514  34.577  -1.968  0.00  0.00    -0.273 OA
BRANCH  30  34
ATOM     34  CA  ILE A   2      15.156  35.549   0.171  0.00  0.00    +0.148 C 
BRANCH  34  37
ATOM     35  C   GLY A   1      16.995  34.208   1.017  0.00  0.00    +0.240 C 
ATOM     36  O   GLY A   1      16.250  33.254   1.226  0.00  0.00    -0.274 OA
ATOM     37  N   ILE A   2      16.568  35.337   0.466  0.00  0.00    -0.297 N 
ATOM     38  H   ILE A   2      17.254  36.085   0.240  0.00  0.00    +0.150 HD
BRANCH  35  39
ATOM     39  CA  GLY A   1      18.467  34.128   1.371  0.00  0.00    +0.169 C 
BRANCH  39  40
ATOM     40  N   GLY A   1      19.184  35.411   1.461  0.00  0.00    -0.236 NA
ATOM     41  H   GLY A   1      19.833  35.683   0.695  0.00  0.00    +0.142 HD
ENDBRANCH  39  40
ENDBRANCH  35  39
ENDBRANCH  34  37
BRANCH  34  42
ATOM     42  CB  ILE A   2      14.847  37.049  -0.049  0.00  0.00    +0.027 C 
ATOM     43  CG2 ILE A   2      13.605  37.240  -0.886  0.00  0.00    +0.002 C 
BRANCH  42  44
ATOM     44  CG1 ILE A   2      14.713  37.748   1.305  0.00  0.00    +0.002 C 
ATOM     45  CD1 ILE A   2      14.707  39.275   1.203  0.00  0.00    +0.000 C 
ENDBRANCH  42  44
ENDBRANCH  34  42
ENDBRANCH  30  34
ENDBRANCH  29  31
BRANCH  29  46
ATOM     46  CB  LEU A   3      12.032  32.369  -1.760  0.00  0.00    +0.029 C 
BRANCH  46  47
ATOM     47  CG  LEU A   3      11.254  31.759  -2.937  0.00  0.00    +0.002 C 
ATOM     48  CD2 LEU A   3      10.249  30.725  -2.459  0.00  0.00    +0.000 C 
ATOM     49  CD1 LEU A   3      12.192  31.166  -3.976  0.00  0.00    +0.000 C 
ENDBRANCH  46  47
ENDBRANCH  29  46
ENDBRANCH   1  29
TORSDOF 20
REMARK  Name = ../refined-set-2016/3ouj/3ouj_pocket.pdb
REMARK  166 active torsions:
REMARK  status: ('A' for Active; 'I' for Inactive)
REMARK    1  A    between atoms: _1  and  _3
REMARK    2  A    between atoms: _3  and  _4
REMARK    3  A    between atoms: _3  and  _6
REMARK    4  A    between atoms: _6  and  _7
REMARK    5  A    between atoms: _9  and  _11
REMARK    6  A    between atoms: _11  and  _12
REMARK    7  A    between atoms: _11  and  _14
REMARK    8  A    between atoms: _14  and  _15
REMARK    9  A    between atoms: _15  and  _16
REMARK   10  A    between atoms: _16  and  _17
REMARK   11  A    between atoms: _26  and  _28
REMARK   12  A    between atoms: _28  and  _29
REMARK   13  A    between atoms: _28  and  _31
REMARK   14  A    between atoms: _31  and  _32
REMARK   15  A    between atoms: _35  and  _37
REMARK   16  A    between atoms: _37  and  _38
REMARK   17  A    between atoms: _37  and  _40
REMARK   18  A    between atoms: _40  and  _41
REMARK   19  A    between atoms: _44  and  _46
REMARK   20  A    between atoms: _46  and  _47
REMARK   21  A    between atoms: _46  and  _49
REMARK   22  A    between atoms: _49  and  _50
REMARK   23  A    between atoms: _50  and  _51
REMARK   24  A    between atoms: _53  and  _55
REMARK   25  A    between atoms: _55  and  _56
REMARK   26  A    between atoms: _59  and  _61
REMARK   27  A    between atoms: _61  and  _62
REMARK   28  A    between atoms: _61  and  _64
REMARK   29  A    between atoms: _66  and  _68
REMARK   30  A    between atoms: _68  and  _69
REMARK   31  A    between atoms: _68  and  _71
REMARK   32  A    between atoms: _71  and  _72
REMARK   33  A    between atoms: _77  and  _78
REMARK   34  A    between atoms: _80  and  _82
REMARK   35  A    between atoms: _82  and  _83
REMARK   36  A    between atoms: _85  and  _87
REMARK   37  A    between atoms: _87  and  _88
REMARK   38  A    between atoms: _87  and  _90
REMARK   39  A    between atoms: _90  and  _91
REMARK   40  A    between atoms: _96  and  _97
REMARK   41  A    between atoms: _99  and  _101
REMARK   42  A    between atoms: _101  and  _102
REMARK   43  A    between atoms: _101  and  _104
REMARK   44  A    between atoms: _107  and  _109
REMARK   45  A    between atoms: _120  and  _123
REMARK   46  A    between atoms: _128  and  _129
REMARK   47  A    between atoms: _135  and  _137
REMARK   48  A    between atoms: _137  and  _138
REMARK   49  A    between atoms: _137  and  _140
REMARK   50  A    between atoms: _140  and  _141
REMARK   51  A    between atoms: _141  and  _142
REMARK   52  A    between atoms: _142  and  _143
REMARK   53  A    between atoms: _152  and  _154
REMARK   54  A    between atoms: _154  and  _155
REMARK   55  A    between atoms: _154  and  _157
REMARK   56  A    between atoms: _157  and  _158
REMARK   57  A    between atoms: _161  and  _163
REMARK   58  A    between atoms: _163  and  _164
REMARK   59  A    between atoms: _163  and  _166
REMARK   60  A    between atoms: _166  and  _167
REMARK   61  A    between atoms: _170  and  _172
REMARK   62  A    between atoms: _172  and  _173
REMARK   63  A    between atoms: _172  and  _175
REMARK   64  A    between atoms: _175  and  _176
REMARK   65  A    between atoms: _181  and  _182
REMARK   66  A    between atoms: _184  and  _186
REMARK   67  A    between atoms: _186  and  _187
REMARK   68  A    between atoms: _186  and  _189
REMARK   69  A    between atoms: _189  and  _190
REMARK   70  A    between atoms: _195  and  _196
REMARK   71  A    between atoms: _198  and  _200
REMARK   72  A    between atoms: _200  and  _201
REMARK   73  A    between atoms: _200  and  _203
REMARK   74  A    between atoms: _203  and  _204
REMARK   75  A    between atoms: _209  and  _211
REMARK   76  A    between atoms: _211  and  _212
REMARK   77  A    between atoms: _214  and  _216
REMARK   78  A    between atoms: _216  and  _217
REMARK   79  A    between atoms: _216  and  _219
REMARK   80  A    between atoms: _219  and  _220
REMARK   81  A    between atoms: _223  and  _225
REMARK   82  A    between atoms: _225  and  _226
REMARK   83  A    between atoms: _225  and  _228
REMARK   84  A    between atoms: _228  and  _229
REMARK   85  A    between atoms: _232  and  _234
REMARK   86  A    between atoms: _234  and  _235
REMARK   87  A    between atoms: _234  and  _237
REMARK   88  A    between atoms: _237  and  _238
REMARK   89  A    between atoms: _238  and  _239
REMARK   90  A    between atoms: _239  and  _240
REMARK   91  A    between atoms: _249  and  _251
REMARK   92  A    between atoms: _251  and  _252
REMARK   93  A    between atoms: _251  and  _254
REMARK   94  A    between atoms: _254  and  _255
REMARK   95  A    between atoms: _258  and  _260
REMARK   96  A    between atoms: _260  and  _261
REMARK   97  A    between atoms: _260  and  _263
REMARK   98  A    between atoms: _263  and  _264
REMARK   99  A    between atoms: _267  and  _269
REMARK  100  A    between atoms: _269  and  _270
REMARK  101  A    between atoms: _269  and  _272
REMARK  102  A    between atoms: _272  and  _273
REMARK  103  A    between atoms: _273  and  _274
REMARK  104  A    between atoms: _278  and  _279
REMARK  105  A    between atoms: _284  and  _286
REMARK  106  A    between atoms: _286  and  _287
REMARK  107  A    between atoms: _286  and  _289
REMARK  108  A    between atoms: _289  and  _290
REMARK  109  A    between atoms: _293  and  _295
REMARK  110  A    between atoms: _295  and  _296
REMARK  111  A    between atoms: _295  and  _298
REMARK  112  A    between atoms: _298  and  _299
REMARK  113  A    between atoms: _305  and  _307
REMARK  114  A    between atoms: _307  and  _308
REMARK  115  A    between atoms: _307  and  _310
REMARK  116  A    between atoms: _310  and  _311
REMARK  117  A    between atoms: _316  and  _318
REMARK  118  A    between atoms: _318  and  _319
REMARK  119  A    between atoms: _318  and  _321
REMARK  120  A    between atoms: _321  and  _322
REMARK  121  A    between atoms: _326  and  FE_441
REMARK  122  A    between atoms: _327  and  _329
REMARK  123  A    between atoms: _329  and  _330
REMARK  124  A    between atoms: _329  and  _332
REMARK  125  A    between atoms: _332  and  _333
REMARK  126  A    between atoms: _333  and  _334
REMARK  127  A    between atoms: _337  and  _339
REMARK  128  A    between atoms: _339  and  _340
REMARK  129  A    between atoms: _339  and  _342
REMARK  130  A    between atoms: _345  and  _347
REMARK  131  A    between atoms: _347  and  _348
REMARK  132  A    between atoms: _347  and  _350
REMARK  133  A    between atoms: _350  and  _351
REMARK  134  A    between atoms: _351  and  _352
REMARK  135  A    between atoms: _357  and  _359
REMARK  136  A    between atoms: _359  and  _360
REMARK  137  A    between atoms: _359  and  _362
REMARK  138  A    between atoms: _362  and  _363
REMARK  139  A    between atoms: _363  and  _364
REMARK  140  A    between atoms: _364  and  _365
REMARK  141  A    between atoms: _374  and  _376
REMARK  142  A    between atoms: _376  and  _377
REMARK  143  A    between atoms: _376  and  _379
REMARK  144  A    between atoms: _379  and  _380
REMARK  145  A    between atoms: _385  and  _386
REMARK  146  A    between atoms: _388  and  _390
REMARK  147  A    between atoms: _390  and  _391
REMARK  148  A    between atoms: _394  and  _396
REMARK  149  A    between atoms: _396  and  _397
REMARK  150  A    between atoms: _396  and  _399
REMARK  151  A    between atoms: _399  and  _400
REMARK  152  A    between atoms: _403  and  _405
REMARK  153  A    between atoms: _405  and  _406
REMARK  154  A    between atoms: _405  and  _408
REMARK  155  A    between atoms: _408  and  _409
REMARK  156  A    between atoms: _412  and  _414
REMARK  157  A    between atoms: _414  and  _415
REMARK  158  A    between atoms: _414  and  _417
REMARK  159  A    between atoms: _417  and  _418
REMARK  160  A    between atoms: _428  and  _430
REMARK  161  A    between atoms: _430  and  _431
REMARK  162  A    between atoms: _430  and  _433
REMARK  163  A    between atoms: _433  and  _434
REMARK  164  A    between atoms: _434  and  _435
REMARK  165  A    between atoms: _435  and  _436
REMARK  166  A    between atoms: _436  and  _437
REMARK                            x       y       z     vdW  Elec       q    Type
REMARK                         _______ _______ _______ _____ _____    ______ ____
ROOT
ATOM      1  CA  GLU A   2      11.838  35.248   3.734  0.00  0.00    +0.149 C 
ENDROOT
BRANCH   1   2
ATOM      2  C   GLU A   2      11.737  33.850   4.351  0.00  0.00    +0.244 C 
ATOM      3  O   GLU A   2      10.642  33.400   4.687  0.00  0.00    -0.273 OA
ATOM      4  N   PRO A   3      12.870  33.146   4.472  0.00  0.00    -0.273 N 
ATOM      5  CA  PRO A   3      12.842  31.744   4.893  0.00  0.00    +0.140 C 
ATOM      6  CB  PRO A   3      14.173  31.214   4.371  0.00  0.00    +0.030 C 
ATOM      7  CG  PRO A   3      15.104  32.403   4.509  0.00  0.00    +0.024 C 
ATOM      8  CD  PRO A   3      14.249  33.626   4.249  0.00  0.00    +0.094 C 
BRANCH   5   9
ATOM      9  C   PRO A   3      12.709  31.575   6.416  0.00  0.00    +0.227 C 
ATOM     10  O   PRO A   3      13.504  30.875   7.037  0.00  0.00    -0.286 OA
ENDBRANCH   5   9
ENDBRANCH   1   2
BRANCH   1  12
ATOM     11  C   ILE A   1      10.735  35.053   1.581  0.00  0.00    +0.238 C 
ATOM     12  N   GLU A   2      10.709  35.420   2.851  0.00  0.00    -0.297 N 
ATOM     13  H   GLU A   2       9.841  35.850   3.229  0.00  0.00    +0.150 HD
ATOM     14  O   ILE A   1      11.723  34.546   1.043  0.00  0.00    -0.274 OA
BRANCH  11  15
ATOM     15  CA  ILE A   1       9.431  35.301   0.807  0.00  0.00    +0.145 C 
BRANCH  15  16
ATOM     16  N   ILE A   1       9.694  36.263  -0.237  0.00  0.00    -0.238 NA
ATOM     17  H   ILE A   1      10.238  35.961  -1.070  0.00  0.00    +0.142 HD
ENDBRANCH  15  16
BRANCH  15  18
ATOM     18  CB  ILE A   1       8.881  33.970   0.246  0.00  0.00    +0.025 C 
ATOM     19  CG2 ILE A   1       8.444  33.038   1.395  0.00  0.00    +0.002 C 
BRANCH  18  20
ATOM     20  CG1 ILE A   1       7.723  34.208  -0.734  0.00  0.00    +0.002 C 
ATOM     21  CD1 ILE A   1       6.596  35.077  -0.189  0.00  0.00    +0.000 C 
ENDBRANCH  18  20
ENDBRANCH  15  18
ENDBRANCH  11  15
ENDBRANCH   1  12
BRANCH   1  22
ATOM     22  CB  GLU A   2      11.825  36.332   4.803  0.00  0.00    +0.041 C 
BRANCH  22  23
ATOM     23  CG  GLU A   2      11.911  37.747   4.226  0.00  0.00    +0.116 C 
BRANCH  23  24
ATOM     24  CD  GLU A   2      10.697  38.163   3.386  0.00  0.00    +0.365 C 
ATOM     25  OE2 GLU A   2       9.574  37.597   3.573  0.00  0.00    -0.246 OA
ATOM     26  OE1 GLU A   2      10.867  39.084   2.544  0.00  0.00    -0.246 OA
ENDBRANCH  23  24
ENDBRANCH  22  23
ENDBRANCH   1  22
TORSDOF 10
REMARK  Name = ../refined-set-2016/3ouj/3ouj_pocket.pdb
REMARK  166 active torsions:
REMARK  status: ('A' for Active; 'I' for Inactive)
REMARK    1  A    between atoms: _1  and  _3
REMARK    2  A    between atoms: _3  and  _4
REMARK    3  A    between atoms: _3  and  _6
REMARK    4  A    between atoms: _6  and  _7
REMARK    5  A    between atoms: _9  and  _11
REMARK    6  A    between atoms: _11  and  _12
REMARK    7  A    between atoms: _11  and  _14
REMARK    8  A    between atoms: _14  and  _15
REMARK    9  A    between atoms: _15  and  _16
REMARK   10  A    between atoms: _16  and  _17
REMARK   11  A    between atoms: _26  and  _28
REMARK   12  A    between atoms: _28  and  _29
REMARK   13  A    between atoms: _28  and  _31
REMARK   14  A    between atoms: _31  and  _32
REMARK   15  A    between atoms: _35  and  _37
REMARK   16  A    between atoms: _37  and  _38
REMARK   17  A    between atoms: _37  and  _40
REMARK   18  A    between atoms: _40  and  _41
REMARK   19  A    between atoms: _44  and  _46
REMARK   20  A    between atoms: _46  and  _47
REMARK   21  A    between atoms: _46  and  _49
REMARK   22  A    between atoms: _49  and  _50
REMARK   23  A    between atoms: _50  and  _51
REMARK   24  A    between atoms: _53  and  _55
REMARK   25  A    between atoms: _55  and  _56
REMARK   26  A    between atoms: _59  and  _61
REMARK   27  A    between atoms: _61  and  _62
REMARK   28  A    between atoms: _61  and  _64
REMARK   29  A    between atoms: _66  and  _68
REMARK   30  A    between atoms: _68  and  _69
REMARK   31  A    between atoms: _68  and  _71
REMARK   32  A    between atoms: _71  and  _72
REMARK   33  A    between atoms: _77  and  _78
REMARK   34  A    between atoms: _80  and  _82
REMARK   35  A    between atoms: _82  and  _83
REMARK   36  A    between atoms: _85  and  _87
REMARK   37  A    between atoms: _87  and  _88
REMARK   38  A    between atoms: _87  and  _90
REMARK   39  A    between atoms: _90  and  _91
REMARK   40  A    between atoms: _96  and  _97
REMARK   41  A    between atoms: _99  and  _101
REMARK   42  A    between atoms: _101  and  _102
REMARK   43  A    between atoms: _101  and  _104
REMARK   44  A    between atoms: _107  and  _109
REMARK   45  A    between atoms: _120  and  _123
REMARK   46  A    between atoms: _128  and  _129
REMARK   47  A    between atoms: _135  and  _137
REMARK   48  A    between atoms: _137  and  _138
REMARK   49  A    between atoms: _137  and  _140
REMARK   50  A    between atoms: _140  and  _141
REMARK   51  A    between atoms: _141  and  _142
REMARK   52  A    between atoms: _142  and  _143
REMARK   53  A    between atoms: _152  and  _154
REMARK   54  A    between atoms: _154  and  _155
REMARK   55  A    between atoms: _154  and  _157
REMARK   56  A    between atoms: _157  and  _158
REMARK   57  A    between atoms: _161  and  _163
REMARK   58  A    between atoms: _163  and  _164
REMARK   59  A    between atoms: _163  and  _166
REMARK   60  A    between atoms: _166  and  _167
REMARK   61  A    between atoms: _170  and  _172
REMARK   62  A    between atoms: _172  and  _173
REMARK   63  A    between atoms: _172  and  _175
REMARK   64  A    between atoms: _175  and  _176
REMARK   65  A    between atoms: _181  and  _182
REMARK   66  A    between atoms: _184  and  _186
REMARK   67  A    between atoms: _186  and  _187
REMARK   68  A    between atoms: _186  and  _189
REMARK   69  A    between atoms: _189  and  _190
REMARK   70  A    between atoms: _195  and  _196
REMARK   71  A    between atoms: _198  and  _200
REMARK   72  A    between atoms: _200  and  _201
REMARK   73  A    between atoms: _200  and  _203
REMARK   74  A    between atoms: _203  and  _204
REMARK   75  A    between atoms: _209  and  _211
REMARK   76  A    between atoms: _211  and  _212
REMARK   77  A    between atoms: _214  and  _216
REMARK   78  A    between atoms: _216  and  _217
REMARK   79  A    between atoms: _216  and  _219
REMARK   80  A    between atoms: _219  and  _220
REMARK   81  A    between atoms: _223  and  _225
REMARK   82  A    between atoms: _225  and  _226
REMARK   83  A    between atoms: _225  and  _228
REMARK   84  A    between atoms: _228  and  _229
REMARK   85  A    between atoms: _232  and  _234
REMARK   86  A    between atoms: _234  and  _235
REMARK   87  A    between atoms: _234  and  _237
REMARK   88  A    between atoms: _237  and  _238
REMARK   89  A    between atoms: _238  and  _239
REMARK   90  A    between atoms: _239  and  _240
REMARK   91  A    between atoms: _249  and  _251
REMARK   92  A    between atoms: _251  and  _252
REMARK   93  A    between atoms: _251  and  _254
REMARK   94  A    between atoms: _254  and  _255
REMARK   95  A    between atoms: _258  and  _260
REMARK   96  A    between atoms: _260  and  _261
REMARK   97  A    between atoms: _260  and  _263
REMARK   98  A    between atoms: _263  and  _264
REMARK   99  A    between atoms: _267  and  _269
REMARK  100  A    between atoms: _269  and  _270
REMARK  101  A    between atoms: _269  and  _272
REMARK  102  A    between atoms: _272  and  _273
REMARK  103  A    between atoms: _273  and  _274
REMARK  104  A    between atoms: _278  and  _279
REMARK  105  A    between atoms: _284  and  _286
REMARK  106  A    between atoms: _286  and  _287
REMARK  107  A    between atoms: _286  and  _289
REMARK  108  A    between atoms: _289  and  _290
REMARK  109  A    between atoms: _293  and  _295
REMARK  110  A    between atoms: _295  and  _296
REMARK  111  A    between atoms: _295  and  _298
REMARK  112  A    between atoms: _298  and  _299
REMARK  113  A    between atoms: _305  and  _307
REMARK  114  A    between atoms: _307  and  _308
REMARK  115  A    between atoms: _307  and  _310
REMARK  116  A    between atoms: _310  and  _311
REMARK  117  A    between atoms: _316  and  _318
REMARK  118  A    between atoms: _318  and  _319
REMARK  119  A    between atoms: _318  and  _321
REMARK  120  A    between atoms: _321  and  _322
REMARK  121  A    between atoms: _326  and  FE_441
REMARK  122  A    between atoms: _327  and  _329
REMARK  123  A    between atoms: _329  and  _330
REMARK  124  A    between atoms: _329  and  _332
REMARK  125  A    between atoms: _332  and  _333
REMARK  126  A    between atoms: _333  and  _334
REMARK  127  A    between atoms: _337  and  _339
REMARK  128  A    between atoms: _339  and  _340
REMARK  129  A    between atoms: _339  and  _342
REMARK  130  A    between atoms: _345  and  _347
REMARK  131  A    between atoms: _347  and  _348
REMARK  132  A    between atoms: _347  and  _350
REMARK  133  A    between atoms: _350  and  _351
REMARK  134  A    between atoms: _351  and  _352
REMARK  135  A    between atoms: _357  and  _359
REMARK  136  A    between atoms: _359  and  _360
REMARK  137  A    between atoms: _359  and  _362
REMARK  138  A    between atoms: _362  and  _363
REMARK  139  A    between atoms: _363  and  _364
REMARK  140  A    between atoms: _364  and  _365
REMARK  141  A    between atoms: _374  and  _376
REMARK  142  A    between atoms: _376  and  _377
REMARK  143  A    between atoms: _376  and  _379
REMARK  144  A    between atoms: _379  and  _380
REMARK  145  A    between atoms: _385  and  _386
REMARK  146  A    between atoms: _388  and  _390
REMARK  147  A    between atoms: _390  and  _391
REMARK  148  A    between atoms: _394  and  _396
REMARK  149  A    between atoms: _396  and  _397
REMARK  150  A    between atoms: _396  and  _399
REMARK  151  A    between atoms: _399  and  _400
REMARK  152  A    between atoms: _403  and  _405
REMARK  153  A    between atoms: _405  and  _406
REMARK  154  A    between atoms: _405  and  _408
REMARK  155  A    between atoms: _408  and  _409
REMARK  156  A    between atoms: _412  and  _414
REMARK  157  A    between atoms: _414  and  _415
REMARK  158  A    between atoms: _414  and  _417
REMARK  159  A    between atoms: _417  and  _418
REMARK  160  A    between atoms: _428  and  _430
REMARK  161  A    between atoms: _430  and  _431
REMARK  162  A    between atoms: _430  and  _433
REMARK  163  A    between atoms: _433  and  _434
REMARK  164  A    between atoms: _434  and  _435
REMARK  165  A    between atoms: _435  and  _436
REMARK  166  A    between atoms: _436  and  _437
REMARK                            x       y       z     vdW  Elec       q    Type
REMARK                         _______ _______ _______ _____ _____    ______ ____
ROOT
ATOM      1  CA  LEU A   1       4.810  28.112   1.495  0.00  0.00    +0.133 C 
ENDROOT
BRANCH   1   2
ATOM      2  N   LEU A   1       5.013  27.381   2.758  0.00  0.00    -0.239 NA
ATOM      3  H   LEU A   1       5.569  26.502   2.739  0.00  0.00    +0.142 HD
ENDBRANCH   1   2
BRANCH   1   4
ATOM      4  C   LEU A   1       4.232  27.200   0.430  0.00  0.00    +0.224 C 
ATOM      5  O   LEU A   1       4.748  26.117   0.211  0.00  0.00    -0.287 OA
ENDBRANCH   1   4
BRANCH   1   6
ATOM      6  CB  LEU A   1       6.141  28.691   0.980  0.00  0.00    +0.025 C 
BRANCH   6   7
ATOM      7  CG  LEU A   1       6.139  29.355  -0.410  0.00  0.00    +0.002 C 
ATOM      8  CD2 LEU A   1       5.231  30.559  -0.444  0.00  0.00    +0.000 C 
ATOM      9  CD1 LEU A   1       7.542  29.763  -0.829  0.00  0.00    +0.000 C 
ENDBRANCH   6   7
ENDBRANCH   1   6
TORSDOF 4
REMARK  Name = ../refined-set-2016/3ouj/3ouj_pocket.pdb
REMARK  166 active torsions:
REMARK  status: ('A' for Active; 'I' for Inactive)
REMARK    1  A    between atoms: _1  and  _3
REMARK    2  A    between atoms: _3  and  _4
REMARK    3  A    between atoms: _3  and  _6
REMARK    4  A    between atoms: _6  and  _7
REMARK    5  A    between atoms: _9  and  _11
REMARK    6  A    between atoms: _11  and  _12
REMARK    7  A    between atoms: _11  and  _14
REMARK    8  A    between atoms: _14  and  _15
REMARK    9  A    between atoms: _15  and  _16
REMARK   10  A    between atoms: _16  and  _17
REMARK   11  A    between atoms: _26  and  _28
REMARK   12  A    between atoms: _28  and  _29
REMARK   13  A    between atoms: _28  and  _31
REMARK   14  A    between atoms: _31  and  _32
REMARK   15  A    between atoms: _35  and  _37
REMARK   16  A    between atoms: _37  and  _38
REMARK   17  A    between atoms: _37  and  _40
REMARK   18  A    between atoms: _40  and  _41
REMARK   19  A    between atoms: _44  and  _46
REMARK   20  A    between atoms: _46  and  _47
REMARK   21  A    between atoms: _46  and  _49
REMARK   22  A    between atoms: _49  and  _50
REMARK   23  A    between atoms: _50  and  _51
REMARK   24  A    between atoms: _53  and  _55
REMARK   25  A    between atoms: _55  and  _56
REMARK   26  A    between atoms: _59  and  _61
REMARK   27  A    between atoms: _61  and  _62
REMARK   28  A    between atoms: _61  and  _64
REMARK   29  A    between atoms: _66  and  _68
REMARK   30  A    between atoms: _68  and  _69
REMARK   31  A    between atoms: _68  and  _71
REMARK   32  A    between atoms: _71  and  _72
REMARK   33  A    between atoms: _77  and  _78
REMARK   34  A    between atoms: _80  and  _82
REMARK   35  A    between atoms: _82  and  _83
REMARK   36  A    between atoms: _85  and  _87
REMARK   37  A    between atoms: _87  and  _88
REMARK   38  A    between atoms: _87  and  _90
REMARK   39  A    between atoms: _90  and  _91
REMARK   40  A    between atoms: _96  and  _97
REMARK   41  A    between atoms: _99  and  _101
REMARK   42  A    between atoms: _101  and  _102
REMARK   43  A    between atoms: _101  and  _104
REMARK   44  A    between atoms: _107  and  _109
REMARK   45  A    between atoms: _120  and  _123
REMARK   46  A    between atoms: _128  and  _129
REMARK   47  A    between atoms: _135  and  _137
REMARK   48  A    between atoms: _137  and  _138
REMARK   49  A    between atoms: _137  and  _140
REMARK   50  A    between atoms: _140  and  _141
REMARK   51  A    between atoms: _141  and  _142
REMARK   52  A    between atoms: _142  and  _143
REMARK   53  A    between atoms: _152  and  _154
REMARK   54  A    between atoms: _154  and  _155
REMARK   55  A    between atoms: _154  and  _157
REMARK   56  A    between atoms: _157  and  _158
REMARK   57  A    between atoms: _161  and  _163
REMARK   58  A    between atoms: _163  and  _164
REMARK   59  A    between atoms: _163  and  _166
REMARK   60  A    between atoms: _166  and  _167
REMARK   61  A    between atoms: _170  and  _172
REMARK   62  A    between atoms: _172  and  _173
REMARK   63  A    between atoms: _172  and  _175
REMARK   64  A    between atoms: _175  and  _176
REMARK   65  A    between atoms: _181  and  _182
REMARK   66  A    between atoms: _184  and  _186
REMARK   67  A    between atoms: _186  and  _187
REMARK   68  A    between atoms: _186  and  _189
REMARK   69  A    between atoms: _189  and  _190
REMARK   70  A    between atoms: _195  and  _196
REMARK   71  A    between atoms: _198  and  _200
REMARK   72  A    between atoms: _200  and  _201
REMARK   73  A    between atoms: _200  and  _203
REMARK   74  A    between atoms: _203  and  _204
REMARK   75  A    between atoms: _209  and  _211
REMARK   76  A    between atoms: _211  and  _212
REMARK   77  A    between atoms: _214  and  _216
REMARK   78  A    between atoms: _216  and  _217
REMARK   79  A    between atoms: _216  and  _219
REMARK   80  A    between atoms: _219  and  _220
REMARK   81  A    between atoms: _223  and  _225
REMARK   82  A    between atoms: _225  and  _226
REMARK   83  A    between atoms: _225  and  _228
REMARK   84  A    between atoms: _228  and  _229
REMARK   85  A    between atoms: _232  and  _234
REMARK   86  A    between atoms: _234  and  _235
REMARK   87  A    between atoms: _234  and  _237
REMARK   88  A    between atoms: _237  and  _238
REMARK   89  A    between atoms: _238  and  _239
REMARK   90  A    between atoms: _239  and  _240
REMARK   91  A    between atoms: _249  and  _251
REMARK   92  A    between atoms: _251  and  _252
REMARK   93  A    between atoms: _251  and  _254
REMARK   94  A    between atoms: _254  and  _255
REMARK   95  A    between atoms: _258  and  _260
REMARK   96  A    between atoms: _260  and  _261
REMARK   97  A    between atoms: _260  and  _263
REMARK   98  A    between atoms: _263  and  _264
REMARK   99  A    between atoms: _267  and  _269
REMARK  100  A    between atoms: _269  and  _270
REMARK  101  A    between atoms: _269  and  _272
REMARK  102  A    between atoms: _272  and  _273
REMARK  103  A    between atoms: _273  and  _274
REMARK  104  A    between atoms: _278  and  _279
REMARK  105  A    between atoms: _284  and  _286
REMARK  106  A    between atoms: _286  and  _287
REMARK  107  A    between atoms: _286  and  _289
REMARK  108  A    between atoms: _289  and  _290
REMARK  109  A    between atoms: _293  and  _295
REMARK  110  A    between atoms: _295  and  _296
REMARK  111  A    between atoms: _295  and  _298
REMARK  112  A    between atoms: _298  and  _299
REMARK  113  A    between atoms: _305  and  _307
REMARK  114  A    between atoms: _307  and  _308
REMARK  115  A    between atoms: _307  and  _310
REMARK  116  A    between atoms: _310  and  _311
REMARK  117  A    between atoms: _316  and  _318
REMARK  118  A    between atoms: _318  and  _319
REMARK  119  A    between atoms: _318  and  _321
REMARK  120  A    between atoms: _321  and  _322
REMARK  121  A    between atoms: _326  and  FE_441
REMARK  122  A    between atoms: _327  and  _329
REMARK  123  A    between atoms: _329  and  _330
REMARK  124  A    between atoms: _329  and  _332
REMARK  125  A    between atoms: _332  and  _333
REMARK  126  A    between atoms: _333  and  _334
REMARK  127  A    between atoms: _337  and  _339
REMARK  128  A    between atoms: _339  and  _340
REMARK  129  A    between atoms: _339  and  _342
REMARK  130  A    between atoms: _345  and  _347
REMARK  131  A    between atoms: _347  and  _348
REMARK  132  A    between atoms: _347  and  _350
REMARK  133  A    between atoms: _350  and  _351
REMARK  134  A    between atoms: _351  and  _352
REMARK  135  A    between atoms: _357  and  _359
REMARK  136  A    between atoms: _359  and  _360
REMARK  137  A    between atoms: _359  and  _362
REMARK  138  A    between atoms: _362  and  _363
REMARK  139  A    between atoms: _363  and  _364
REMARK  140  A    between atoms: _364  and  _365
REMARK  141  A    between atoms: _374  and  _376
REMARK  142  A    between atoms: _376  and  _377
REMARK  143  A    between atoms: _376  and  _379
REMARK  144  A    between atoms: _379  and  _380
REMARK  145  A    between atoms: _385  and  _386
REMARK  146  A    between atoms: _388  and  _390
REMARK  147  A    between atoms: _390  and  _391
REMARK  148  A    between atoms: _394  and  _396
REMARK  149  A    between atoms: _396  and  _397
REMARK  150  A    between atoms: _396  and  _399
REMARK  151  A    between atoms: _399  and  _400
REMARK  152  A    between atoms: _403  and  _405
REMARK  153  A    between atoms: _405  and  _406
REMARK  154  A    between atoms: _405  and  _408
REMARK  155  A    between atoms: _408  and  _409
REMARK  156  A    between atoms: _412  and  _414
REMARK  157  A    between atoms: _414  and  _415
REMARK  158  A    between atoms: _414  and  _417
REMARK  159  A    between atoms: _417  and  _418
REMARK  160  A    between atoms: _428  and  _430
REMARK  161  A    between atoms: _430  and  _431
REMARK  162  A    between atoms: _430  and  _433
REMARK  163  A    between atoms: _433  and  _434
REMARK  164  A    between atoms: _434  and  _435
REMARK  165  A    between atoms: _435  and  _436
REMARK  166  A    between atoms: _436  and  _437
REMARK                            x       y       z     vdW  Elec       q    Type
REMARK                         _______ _______ _______ _____ _____    ______ ____
ROOT
ATOM      1  CB  PHE A   1       3.948  29.070  -5.245  0.00  0.00    +0.051 C 
ENDROOT
BRANCH   1   2
ATOM      2  CG  PHE A   1       5.373  28.538  -5.286  0.00  0.00    -0.020 A 
ATOM      3  CD2 PHE A   1       6.146  28.502  -4.141  0.00  0.00    -0.004 A 
ATOM      4  CE2 PHE A   1       7.454  28.044  -4.160  0.00  0.00    -0.000 A 
ATOM      5  CZ  PHE A   1       8.033  27.653  -5.366  0.00  0.00    -0.000 A 
ATOM      6  CE1 PHE A   1       7.278  27.711  -6.544  0.00  0.00    -0.000 A 
ATOM      7  CD1 PHE A   1       5.959  28.167  -6.495  0.00  0.00    -0.004 A 
ENDBRANCH   1   2
BRANCH   1   8
ATOM      8  CA  PHE A   1       2.862  28.002  -5.020  0.00  0.00    +0.137 C 
BRANCH   8   9
ATOM      9  N   PHE A   1       3.040  27.322  -3.727  0.00  0.00    -0.239 NA
ATOM     10  H   PHE A   1       3.492  26.386  -3.699  0.00  0.00    +0.142 HD
ENDBRANCH   8   9
BRANCH   8  11
ATOM     11  C   PHE A   1       2.788  27.007  -6.173  0.00  0.00    +0.224 C 
ATOM     12  O   PHE A   1       3.268  25.867  -6.037  0.00  0.00    -0.287 OA
ENDBRANCH   8  11
ENDBRANCH   1   8
TORSDOF 4
REMARK  Name = ../refined-set-2016/3ouj/3ouj_pocket.pdb
REMARK  166 active torsions:
REMARK  status: ('A' for Active; 'I' for Inactive)
REMARK    1  A    between atoms: _1  and  _3
REMARK    2  A    between atoms: _3  and  _4
REMARK    3  A    between atoms: _3  and  _6
REMARK    4  A    between atoms: _6  and  _7
REMARK    5  A    between atoms: _9  and  _11
REMARK    6  A    between atoms: _11  and  _12
REMARK    7  A    between atoms: _11  and  _14
REMARK    8  A    between atoms: _14  and  _15
REMARK    9  A    between atoms: _15  and  _16
REMARK   10  A    between atoms: _16  and  _17
REMARK   11  A    between atoms: _26  and  _28
REMARK   12  A    between atoms: _28  and  _29
REMARK   13  A    between atoms: _28  and  _31
REMARK   14  A    between atoms: _31  and  _32
REMARK   15  A    between atoms: _35  and  _37
REMARK   16  A    between atoms: _37  and  _38
REMARK   17  A    between atoms: _37  and  _40
REMARK   18  A    between atoms: _40  and  _41
REMARK   19  A    between atoms: _44  and  _46
REMARK   20  A    between atoms: _46  and  _47
REMARK   21  A    between atoms: _46  and  _49
REMARK   22  A    between atoms: _49  and  _50
REMARK   23  A    between atoms: _50  and  _51
REMARK   24  A    between atoms: _53  and  _55
REMARK   25  A    between atoms: _55  and  _56
REMARK   26  A    between atoms: _59  and  _61
REMARK   27  A    between atoms: _61  and  _62
REMARK   28  A    between atoms: _61  and  _64
REMARK   29  A    between atoms: _66  and  _68
REMARK   30  A    between atoms: _68  and  _69
REMARK   31  A    between atoms: _68  and  _71
REMARK   32  A    between atoms: _71  and  _72
REMARK   33  A    between atoms: _77  and  _78
REMARK   34  A    between atoms: _80  and  _82
REMARK   35  A    between atoms: _82  and  _83
REMARK   36  A    between atoms: _85  and  _87
REMARK   37  A    between atoms: _87  and  _88
REMARK   38  A    between atoms: _87  and  _90
REMARK   39  A    between atoms: _90  and  _91
REMARK   40  A    between atoms: _96  and  _97
REMARK   41  A    between atoms: _99  and  _101
REMARK   42  A    between atoms: _101  and  _102
REMARK   43  A    between atoms: _101  and  _104
REMARK   44  A    between atoms: _107  and  _109
REMARK   45  A    between atoms: _120  and  _123
REMARK   46  A    between atoms: _128  and  _129
REMARK   47  A    between atoms: _135  and  _137
REMARK   48  A    between atoms: _137  and  _138
REMARK   49  A    between atoms: _137  and  _140
REMARK   50  A    between atoms: _140  and  _141
REMARK   51  A    between atoms: _141  and  _142
REMARK   52  A    between atoms: _142  and  _143
REMARK   53  A    between atoms: _152  and  _154
REMARK   54  A    between atoms: _154  and  _155
REMARK   55  A    between atoms: _154  and  _157
REMARK   56  A    between atoms: _157  and  _158
REMARK   57  A    between atoms: _161  and  _163
REMARK   58  A    between atoms: _163  and  _164
REMARK   59  A    between atoms: _163  and  _166
REMARK   60  A    between atoms: _166  and  _167
REMARK   61  A    between atoms: _170  and  _172
REMARK   62  A    between atoms: _172  and  _173
REMARK   63  A    between atoms: _172  and  _175
REMARK   64  A    between atoms: _175  and  _176
REMARK   65  A    between atoms: _181  and  _182
REMARK   66  A    between atoms: _184  and  _186
REMARK   67  A    between atoms: _186  and  _187
REMARK   68  A    between atoms: _186  and  _189
REMARK   69  A    between atoms: _189  and  _190
REMARK   70  A    between atoms: _195  and  _196
REMARK   71  A    between atoms: _198  and  _200
REMARK   72  A    between atoms: _200  and  _201
REMARK   73  A    between atoms: _200  and  _203
REMARK   74  A    between atoms: _203  and  _204
REMARK   75  A    between atoms: _209  and  _211
REMARK   76  A    between atoms: _211  and  _212
REMARK   77  A    between atoms: _214  and  _216
REMARK   78  A    between atoms: _216  and  _217
REMARK   79  A    between atoms: _216  and  _219
REMARK   80  A    between atoms: _219  and  _220
REMARK   81  A    between atoms: _223  and  _225
REMARK   82  A    between atoms: _225  and  _226
REMARK   83  A    between atoms: _225  and  _228
REMARK   84  A    between atoms: _228  and  _229
REMARK   85  A    between atoms: _232  and  _234
REMARK   86  A    between atoms: _234  and  _235
REMARK   87  A    between atoms: _234  and  _237
REMARK   88  A    between atoms: _237  and  _238
REMARK   89  A    between atoms: _238  and  _239
REMARK   90  A    between atoms: _239  and  _240
REMARK   91  A    between atoms: _249  and  _251
REMARK   92  A    between atoms: _251  and  _252
REMARK   93  A    between atoms: _251  and  _254
REMARK   94  A    between atoms: _254  and  _255
REMARK   95  A    between atoms: _258  and  _260
REMARK   96  A    between atoms: _260  and  _261
REMARK   97  A    between atoms: _260  and  _263
REMARK   98  A    between atoms: _263  and  _264
REMARK   99  A    between atoms: _267  and  _269
REMARK  100  A    between atoms: _269  and  _270
REMARK  101  A    between atoms: _269  and  _272
REMARK  102  A    between atoms: _272  and  _273
REMARK  103  A    between atoms: _273  and  _274
REMARK  104  A    between atoms: _278  and  _279
REMARK  105  A    between atoms: _284  and  _286
REMARK  106  A    between atoms: _286  and  _287
REMARK  107  A    between atoms: _286  and  _289
REMARK  108  A    between atoms: _289  and  _290
REMARK  109  A    between atoms: _293  and  _295
REMARK  110  A    between atoms: _295  and  _296
REMARK  111  A    between atoms: _295  and  _298
REMARK  112  A    between atoms: _298  and  _299
REMARK  113  A    between atoms: _305  and  _307
REMARK  114  A    between atoms: _307  and  _308
REMARK  115  A    between atoms: _307  and  _310
REMARK  116  A    between atoms: _310  and  _311
REMARK  117  A    between atoms: _316  and  _318
REMARK  118  A    between atoms: _318  and  _319
REMARK  119  A    between atoms: _318  and  _321
REMARK  120  A    between atoms: _321  and  _322
REMARK  121  A    between atoms: _326  and  FE_441
REMARK  122  A    between atoms: _327  and  _329
REMARK  123  A    between atoms: _329  and  _330
REMARK  124  A    between atoms: _329  and  _332
REMARK  125  A    between atoms: _332  and  _333
REMARK  126  A    between atoms: _333  and  _334
REMARK  127  A    between atoms: _337  and  _339
REMARK  128  A    between atoms: _339  and  _340
REMARK  129  A    between atoms: _339  and  _342
REMARK  130  A    between atoms: _345  and  _347
REMARK  131  A    between atoms: _347  and  _348
REMARK  132  A    between atoms: _347  and  _350
REMARK  133  A    between atoms: _350  and  _351
REMARK  134  A    between atoms: _351  and  _352
REMARK  135  A    between atoms: _357  and  _359
REMARK  136  A    between atoms: _359  and  _360
REMARK  137  A    between atoms: _359  and  _362
REMARK  138  A    between atoms: _362  and  _363
REMARK  139  A    between atoms: _363  and  _364
REMARK  140  A    between atoms: _364  and  _365
REMARK  141  A    between atoms: _374  and  _376
REMARK  142  A    between atoms: _376  and  _377
REMARK  143  A    between atoms: _376  and  _379
REMARK  144  A    between atoms: _379  and  _380
REMARK  145  A    between atoms: _385  and  _386
REMARK  146  A    between atoms: _388  and  _390
REMARK  147  A    between atoms: _390  and  _391
REMARK  148  A    between atoms: _394  and  _396
REMARK  149  A    between atoms: _396  and  _397
REMARK  150  A    between atoms: _396  and  _399
REMARK  151  A    between atoms: _399  and  _400
REMARK  152  A    between atoms: _403  and  _405
REMARK  153  A    between atoms: _405  and  _406
REMARK  154  A    between atoms: _405  and  _408
REMARK  155  A    between atoms: _408  and  _409
REMARK  156  A    between atoms: _412  and  _414
REMARK  157  A    between atoms: _414  and  _415
REMARK  158  A    between atoms: _414  and  _417
REMARK  159  A    between atoms: _417  and  _418
REMARK  160  A    between atoms: _428  and  _430
REMARK  161  A    between atoms: _430  and  _431
REMARK  162  A    between atoms: _430  and  _433
REMARK  163  A    between atoms: _433  and  _434
REMARK  164  A    between atoms: _434  and  _435
REMARK  165  A    between atoms: _435  and  _436
REMARK  166  A    between atoms: _436  and  _437
REMARK                            x       y       z     vdW  Elec       q    Type
REMARK                         _______ _______ _______ _____ _____    ______ ____
ROOT
ATOM      1  CB  ASN A   1       5.339  30.560  -9.620  0.00  0.00    +0.000 C 
ENDROOT
BRANCH   1   2
ATOM      2  CG  ASN A   1       4.031  31.138  -9.151  0.00  0.00    +0.000 C 
ATOM      3  ND2 ASN A   1       3.104  30.268  -8.805  0.00  0.00    +0.000 N 
ATOM      4 HD21 ASN A   1       2.182  30.601  -8.458  0.00  0.00    +0.000 HD
ATOM      5 HD22 ASN A   1       3.294  29.248  -8.879  0.00  0.00    +0.000 HD
ATOM      6  OD1 ASN A   1       3.855  32.356  -9.082  0.00  0.00    +0.000 OA
ENDBRANCH   1   2
BRANCH   1   7
ATOM      7  CA  ASN A   1       5.821  31.167 -10.945  0.00  0.00    +0.000 C 
BRANCH   7   8
ATOM      8  N   ASN A   1       4.976  30.685 -12.061  0.00  0.00    +0.000 NA
ATOM      9  H   ASN A   1       5.148  29.737 -12.452  0.00  0.00    +0.000 HD
ENDBRANCH   7   8
BRANCH   7  10
ATOM     10  C   ASN A   1       7.322  30.908 -11.069  0.00  0.00    +0.000 C 
ATOM     11  O   ASN A   1       7.875  30.077 -10.337  0.00  0.00    +0.000 OA
ENDBRANCH   7  10
ENDBRANCH   1   7
TORSDOF 4
REMARK  Name = ../refined-set-2016/3ouj/3ouj_pocket.pdb
REMARK  166 active torsions:
REMARK  status: ('A' for Active; 'I' for Inactive)
REMARK    1  A    between atoms: _1  and  _3
REMARK    2  A    between atoms: _3  and  _4
REMARK    3  A    between atoms: _3  and  _6
REMARK    4  A    between atoms: _6  and  _7
REMARK    5  A    between atoms: _9  and  _11
REMARK    6  A    between atoms: _11  and  _12
REMARK    7  A    between atoms: _11  and  _14
REMARK    8  A    between atoms: _14  and  _15
REMARK    9  A    between atoms: _15  and  _16
REMARK   10  A    between atoms: _16  and  _17
REMARK   11  A    between atoms: _26  and  _28
REMARK   12  A    between atoms: _28  and  _29
REMARK   13  A    between atoms: _28  and  _31
REMARK   14  A    between atoms: _31  and  _32
REMARK   15  A    between atoms: _35  and  _37
REMARK   16  A    between atoms: _37  and  _38
REMARK   17  A    between atoms: _37  and  _40
REMARK   18  A    between atoms: _40  and  _41
REMARK   19  A    between atoms: _44  and  _46
REMARK   20  A    between atoms: _46  and  _47
REMARK   21  A    between atoms: _46  and  _49
REMARK   22  A    between atoms: _49  and  _50
REMARK   23  A    between atoms: _50  and  _51
REMARK   24  A    between atoms: _53  and  _55
REMARK   25  A    between atoms: _55  and  _56
REMARK   26  A    between atoms: _59  and  _61
REMARK   27  A    between atoms: _61  and  _62
REMARK   28  A    between atoms: _61  and  _64
REMARK   29  A    between atoms: _66  and  _68
REMARK   30  A    between atoms: _68  and  _69
REMARK   31  A    between atoms: _68  and  _71
REMARK   32  A    between atoms: _71  and  _72
REMARK   33  A    between atoms: _77  and  _78
REMARK   34  A    between atoms: _80  and  _82
REMARK   35  A    between atoms: _82  and  _83
REMARK   36  A    between atoms: _85  and  _87
REMARK   37  A    between atoms: _87  and  _88
REMARK   38  A    between atoms: _87  and  _90
REMARK   39  A    between atoms: _90  and  _91
REMARK   40  A    between atoms: _96  and  _97
REMARK   41  A    between atoms: _99  and  _101
REMARK   42  A    between atoms: _101  and  _102
REMARK   43  A    between atoms: _101  and  _104
REMARK   44  A    between atoms: _107  and  _109
REMARK   45  A    between atoms: _120  and  _123
REMARK   46  A    between atoms: _128  and  _129
REMARK   47  A    between atoms: _135  and  _137
REMARK   48  A    between atoms: _137  and  _138
REMARK   49  A    between atoms: _137  and  _140
REMARK   50  A    between atoms: _140  and  _141
REMARK   51  A    between atoms: _141  and  _142
REMARK   52  A    between atoms: _142  and  _143
REMARK   53  A    between atoms: _152  and  _154
REMARK   54  A    between atoms: _154  and  _155
REMARK   55  A    between atoms: _154  and  _157
REMARK   56  A    between atoms: _157  and  _158
REMARK   57  A    between atoms: _161  and  _163
REMARK   58  A    between atoms: _163  and  _164
REMARK   59  A    between atoms: _163  and  _166
REMARK   60  A    between atoms: _166  and  _167
REMARK   61  A    between atoms: _170  and  _172
REMARK   62  A    between atoms: _172  and  _173
REMARK   63  A    between atoms: _172  and  _175
REMARK   64  A    between atoms: _175  and  _176
REMARK   65  A    between atoms: _181  and  _182
REMARK   66  A    between atoms: _184  and  _186
REMARK   67  A    between atoms: _186  and  _187
REMARK   68  A    between atoms: _186  and  _189
REMARK   69  A    between atoms: _189  and  _190
REMARK   70  A    between atoms: _195  and  _196
REMARK   71  A    between atoms: _198  and  _200
REMARK   72  A    between atoms: _200  and  _201
REMARK   73  A    between atoms: _200  and  _203
REMARK   74  A    between atoms: _203  and  _204
REMARK   75  A    between atoms: _209  and  _211
REMARK   76  A    between atoms: _211  and  _212
REMARK   77  A    between atoms: _214  and  _216
REMARK   78  A    between atoms: _216  and  _217
REMARK   79  A    between atoms: _216  and  _219
REMARK   80  A    between atoms: _219  and  _220
REMARK   81  A    between atoms: _223  and  _225
REMARK   82  A    between atoms: _225  and  _226
REMARK   83  A    between atoms: _225  and  _228
REMARK   84  A    between atoms: _228  and  _229
REMARK   85  A    between atoms: _232  and  _234
REMARK   86  A    between atoms: _234  and  _235
REMARK   87  A    between atoms: _234  and  _237
REMARK   88  A    between atoms: _237  and  _238
REMARK   89  A    between atoms: _238  and  _239
REMARK   90  A    between atoms: _239  and  _240
REMARK   91  A    between atoms: _249  and  _251
REMARK   92  A    between atoms: _251  and  _252
REMARK   93  A    between atoms: _251  and  _254
REMARK   94  A    between atoms: _254  and  _255
REMARK   95  A    between atoms: _258  and  _260
REMARK   96  A    between atoms: _260  and  _261
REMARK   97  A    between atoms: _260  and  _263
REMARK   98  A    between atoms: _263  and  _264
REMARK   99  A    between atoms: _267  and  _269
REMARK  100  A    between atoms: _269  and  _270
REMARK  101  A    between atoms: _269  and  _272
REMARK  102  A    between atoms: _272  and  _273
REMARK  103  A    between atoms: _273  and  _274
REMARK  104  A    between atoms: _278  and  _279
REMARK  105  A    between atoms: _284  and  _286
REMARK  106  A    between atoms: _286  and  _287
REMARK  107  A    between atoms: _286  and  _289
REMARK  108  A    between atoms: _289  and  _290
REMARK  109  A    between atoms: _293  and  _295
REMARK  110  A    between atoms: _295  and  _296
REMARK  111  A    between atoms: _295  and  _298
REMARK  112  A    between atoms: _298  and  _299
REMARK  113  A    between atoms: _305  and  _307
REMARK  114  A    between atoms: _307  and  _308
REMARK  115  A    between atoms: _307  and  _310
REMARK  116  A    between atoms: _310  and  _311
REMARK  117  A    between atoms: _316  and  _318
REMARK  118  A    between atoms: _318  and  _319
REMARK  119  A    between atoms: _318  and  _321
REMARK  120  A    between atoms: _321  and  _322
REMARK  121  A    between atoms: _326  and  FE_441
REMARK  122  A    between atoms: _327  and  _329
REMARK  123  A    between atoms: _329  and  _330
REMARK  124  A    between atoms: _329  and  _332
REMARK  125  A    between atoms: _332  and  _333
REMARK  126  A    between atoms: _333  and  _334
REMARK  127  A    between atoms: _337  and  _339
REMARK  128  A    between atoms: _339  and  _340
REMARK  129  A    between atoms: _339  and  _342
REMARK  130  A    between atoms: _345  and  _347
REMARK  131  A    between atoms: _347  and  _348
REMARK  132  A    between atoms: _347  and  _350
REMARK  133  A    between atoms: _350  and  _351
REMARK  134  A    between atoms: _351  and  _352
REMARK  135  A    between atoms: _357  and  _359
REMARK  136  A    between atoms: _359  and  _360
REMARK  137  A    between atoms: _359  and  _362
REMARK  138  A    between atoms: _362  and  _363
REMARK  139  A    between atoms: _363  and  _364
REMARK  140  A    between atoms: _364  and  _365
REMARK  141  A    between atoms: _374  and  _376
REMARK  142  A    between atoms: _376  and  _377
REMARK  143  A    between atoms: _376  and  _379
REMARK  144  A    between atoms: _379  and  _380
REMARK  145  A    between atoms: _385  and  _386
REMARK  146  A    between atoms: _388  and  _390
REMARK  147  A    between atoms: _390  and  _391
REMARK  148  A    between atoms: _394  and  _396
REMARK  149  A    between atoms: _396  and  _397
REMARK  150  A    between atoms: _396  and  _399
REMARK  151  A    between atoms: _399  and  _400
REMARK  152  A    between atoms: _403  and  _405
REMARK  153  A    between atoms: _405  and  _406
REMARK  154  A    between atoms: _405  and  _408
REMARK  155  A    between atoms: _408  and  _409
REMARK  156  A    between atoms: _412  and  _414
REMARK  157  A    between atoms: _414  and  _415
REMARK  158  A    between atoms: _414  and  _417
REMARK  159  A    between atoms: _417  and  _418
REMARK  160  A    between atoms: _428  and  _430
REMARK  161  A    between atoms: _430  and  _431
REMARK  162  A    between atoms: _430  and  _433
REMARK  163  A    between atoms: _433  and  _434
REMARK  164  A    between atoms: _434  and  _435
REMARK  165  A    between atoms: _435  and  _436
REMARK  166  A    between atoms: _436  and  _437
REMARK                            x       y       z     vdW  Elec       q    Type
REMARK                         _______ _______ _______ _____ _____    ______ ____
ROOT
ATOM      1  CA  TYR A   2      17.463  25.110   5.584  0.00  0.00    +0.000 C 
ENDROOT
BRANCH   1   3
ATOM      2  C   ARG A   1      19.137  26.796   4.924  0.00  0.00    +0.000 C 
ATOM      3  N   TYR A   2      18.173  26.376   5.744  0.00  0.00    +0.000 N 
ATOM      4  H   TYR A   2      17.911  26.986   6.545  0.00  0.00    +0.000 HD
ATOM      5  O   ARG A   1      19.544  26.152   3.941  0.00  0.00    +0.000 OA
BRANCH   2   6
ATOM      6  CA  ARG A   1      19.724  28.169   5.252  0.00  0.00    +0.000 C 
BRANCH   6   7
ATOM      7  N   ARG A   1      21.142  28.048   5.565  0.00  0.00    +0.000 NA
ATOM      8  H   ARG A   1      21.771  27.604   4.865  0.00  0.00    +0.000 HD
ENDBRANCH   6   7
BRANCH   6   9
ATOM      9  CB  ARG A   1      19.566  29.126   4.066  0.00  0.00    +0.000 C 
BRANCH   9  10
ATOM     10  CG  ARG A   1      18.152  29.374   3.558  0.00  0.00    +0.000 C 
BRANCH  10  11
ATOM     11  CD  ARG A   1      18.262  30.080   2.199  0.00  0.00    +0.000 C 
BRANCH  11  12
ATOM     12  NE  ARG A   1      17.006  30.592   1.657  0.00  0.00    +0.330 N 
ATOM     13  HE  ARG A   1      16.848  31.618   1.714  0.00  0.00    +0.000 HD
ATOM     14  CZ  ARG A   1      16.045  29.858   1.096  0.00  0.00    +0.000 C 
ATOM     15  NH2 ARG A   1      16.136  28.531   1.012  0.00  0.00    +0.330 N 
ATOM     16 HH21 ARG A   1      16.973  28.042   1.390  0.00  0.00    +0.000 HD
ATOM     17 HH22 ARG A   1      15.370  27.984   0.569  0.00  0.00    +0.000 HD
ATOM     18  NH1 ARG A   1      14.974  30.471   0.606  0.00  0.00    +0.330 N 
ATOM     19 HH11 ARG A   1      14.896  31.506   0.664  0.00  0.00    +0.000 HD
ATOM     20 HH12 ARG A   1      14.214  29.916   0.164  0.00  0.00    +0.000 HD
ENDBRANCH  11  12
ENDBRANCH  10  11
ENDBRANCH   9  10
ENDBRANCH   6   9
ENDBRANCH   2   6
ENDBRANCH   1   3
BRANCH   1  21
ATOM     21  C   TYR A   2      16.027  25.283   5.097  0.00  0.00    +0.000 C 
ATOM     22  O   TYR A   2      15.379  26.286   5.365  0.00  0.00    +0.000 OA
ATOM     23  N   ALA A   3      15.545  24.277   4.376  0.00  0.00    +0.000 N 
ATOM     24  H   ALA A   3      16.155  23.452   4.205  0.00  0.00    +0.000 HD
BRANCH  23  25
ATOM     25  CA  ALA A   3      14.201  24.276   3.814  0.00  0.00    +0.000 C 
ATOM     26  CB  ALA A   3      14.121  25.230   2.615  0.00  0.00    +0.000 C 
BRANCH  25  27
ATOM     27  C   ALA A   3      13.854  22.844   3.404  0.00  0.00    +0.000 C 
ATOM     28  N   ILE A   4      12.579  22.498   3.471  0.00  0.00    +0.000 N 
ATOM     29  H   ILE A   4      11.886  23.196   3.809  0.00  0.00    +0.000 HD
ATOM     30  O   ALA A   3      14.733  22.068   3.057  0.00  0.00    +0.000 OA
BRANCH  28  31
ATOM     31  CA  ILE A   4      12.113  21.177   3.089  0.00  0.00    +0.000 C 
BRANCH  31  32
ATOM     32  C   ILE A   4      10.975  21.352   2.079  0.00  0.00    +0.000 C 
ATOM     33  O   ILE A   4       9.961  21.958   2.390  0.00  0.00    +0.000 OA
ATOM     34  N   THR A   5      11.175  20.815   0.880  0.00  0.00    +0.000 N 
ATOM     35  H   THR A   5      12.056  20.288   0.716  0.00  0.00    +0.000 HD
BRANCH  34  36
ATOM     36  CA  THR A   5      10.225  20.927  -0.214  0.00  0.00    +0.000 C 
BRANCH  36  37
ATOM     37  CB  THR A   5      10.947  21.398  -1.490  0.00  0.00    +0.000 C 
ATOM     38  CG2 THR A   5       9.984  21.481  -2.687  0.00  0.00    +0.000 C 
BRANCH  37  39
ATOM     39  OG1 THR A   5      11.543  22.673  -1.250  0.00  0.00    +0.000 OA
ATOM     40  HG1 THR A   5      12.194  22.597  -0.508  0.00  0.00    +0.000 HD
ENDBRANCH  37  39
ENDBRANCH  36  37
BRANCH  36  41
ATOM     41  C   THR A   5       9.567  19.587  -0.525  0.00  0.00    +0.000 C 
ATOM     42  O   THR A   5      10.230  18.558  -0.582  0.00  0.00    +0.000 OA
ENDBRANCH  36  41
ENDBRANCH  34  36
ENDBRANCH  31  32
BRANCH  31  43
ATOM     43  CB  ILE A   4      11.620  20.363   4.310  0.00  0.00    +0.000 C 
ATOM     44  CG2 ILE A   4      11.200  18.948   3.886  0.00  0.00    +0.000 C 
BRANCH  43  45
ATOM     45  CG1 ILE A   4      12.712  20.316   5.394  0.00  0.00    +0.000 C 
ATOM     46  CD1 ILE A   4      12.377  19.450   6.584  0.00  0.00    +0.000 C 
ENDBRANCH  43  45
ENDBRANCH  31  43
ENDBRANCH  28  31
ENDBRANCH  25  27
ENDBRANCH  23  25
ENDBRANCH   1  21
BRANCH   1  47
ATOM     47  CB  TYR A   2      17.435  24.352   6.907  0.00  0.00    +0.000 C 
BRANCH  47  48
ATOM     48  CG  TYR A   2      18.777  23.818   7.344  0.00  0.00    +0.000 A 
ATOM     49  CD2 TYR A   2      19.373  24.247   8.536  0.00  0.00    +0.000 A 
ATOM     50  CE2 TYR A   2      20.614  23.741   8.949  0.00  0.00    +0.000 A 
ATOM     51  CZ  TYR A   2      21.260  22.791   8.168  0.00  0.00    +0.000 A 
ATOM     52  CE1 TYR A   2      20.688  22.350   6.986  0.00  0.00    +0.000 A 
ATOM     53  CD1 TYR A   2      19.443  22.866   6.584  0.00  0.00    +0.000 A 
BRANCH  51  54
ATOM     54  OH  TYR A   2      22.480  22.278   8.555  0.00  0.00    +0.000 OA
ATOM     55  HH  TYR A   2      22.788  21.619   7.883  0.00  0.00    +0.000 HD
ENDBRANCH  51  54
ENDBRANCH  47  48
ENDBRANCH   1  47
TORSDOF 21
REMARK  Name = ../refined-set-2016/3ouj/3ouj_pocket.pdb
REMARK  166 active torsions:
REMARK  status: ('A' for Active; 'I' for Inactive)
REMARK    1  A    between atoms: _1  and  _3
REMARK    2  A    between atoms: _3  and  _4
REMARK    3  A    between atoms: _3  and  _6
REMARK    4  A    between atoms: _6  and  _7
REMARK    5  A    between atoms: _9  and  _11
REMARK    6  A    between atoms: _11  and  _12
REMARK    7  A    between atoms: _11  and  _14
REMARK    8  A    between atoms: _14  and  _15
REMARK    9  A    between atoms: _15  and  _16
REMARK   10  A    between atoms: _16  and  _17
REMARK   11  A    between atoms: _26  and  _28
REMARK   12  A    between atoms: _28  and  _29
REMARK   13  A    between atoms: _28  and  _31
REMARK   14  A    between atoms: _31  and  _32
REMARK   15  A    between atoms: _35  and  _37
REMARK   16  A    between atoms: _37  and  _38
REMARK   17  A    between atoms: _37  and  _40
REMARK   18  A    between atoms: _40  and  _41
REMARK   19  A    between atoms: _44  and  _46
REMARK   20  A    between atoms: _46  and  _47
REMARK   21  A    between atoms: _46  and  _49
REMARK   22  A    between atoms: _49  and  _50
REMARK   23  A    between atoms: _50  and  _51
REMARK   24  A    between atoms: _53  and  _55
REMARK   25  A    between atoms: _55  and  _56
REMARK   26  A    between atoms: _59  and  _61
REMARK   27  A    between atoms: _61  and  _62
REMARK   28  A    between atoms: _61  and  _64
REMARK   29  A    between atoms: _66  and  _68
REMARK   30  A    between atoms: _68  and  _69
REMARK   31  A    between atoms: _68  and  _71
REMARK   32  A    between atoms: _71  and  _72
REMARK   33  A    between atoms: _77  and  _78
REMARK   34  A    between atoms: _80  and  _82
REMARK   35  A    between atoms: _82  and  _83
REMARK   36  A    between atoms: _85  and  _87
REMARK   37  A    between atoms: _87  and  _88
REMARK   38  A    between atoms: _87  and  _90
REMARK   39  A    between atoms: _90  and  _91
REMARK   40  A    between atoms: _96  and  _97
REMARK   41  A    between atoms: _99  and  _101
REMARK   42  A    between atoms: _101  and  _102
REMARK   43  A    between atoms: _101  and  _104
REMARK   44  A    between atoms: _107  and  _109
REMARK   45  A    between atoms: _120  and  _123
REMARK   46  A    between atoms: _128  and  _129
REMARK   47  A    between atoms: _135  and  _137
REMARK   48  A    between atoms: _137  and  _138
REMARK   49  A    between atoms: _137  and  _140
REMARK   50  A    between atoms: _140  and  _141
REMARK   51  A    between atoms: _141  and  _142
REMARK   52  A    between atoms: _142  and  _143
REMARK   53  A    between atoms: _152  and  _154
REMARK   54  A    between atoms: _154  and  _155
REMARK   55  A    between atoms: _154  and  _157
REMARK   56  A    between atoms: _157  and  _158
REMARK   57  A    between atoms: _161  and  _163
REMARK   58  A    between atoms: _163  and  _164
REMARK   59  A    between atoms: _163  and  _166
REMARK   60  A    between atoms: _166  and  _167
REMARK   61  A    between atoms: _170  and  _172
REMARK   62  A    between atoms: _172  and  _173
REMARK   63  A    between atoms: _172  and  _175
REMARK   64  A    between atoms: _175  and  _176
REMARK   65  A    between atoms: _181  and  _182
REMARK   66  A    between atoms: _184  and  _186
REMARK   67  A    between atoms: _186  and  _187
REMARK   68  A    between atoms: _186  and  _189
REMARK   69  A    between atoms: _189  and  _190
REMARK   70  A    between atoms: _195  and  _196
REMARK   71  A    between atoms: _198  and  _200
REMARK   72  A    between atoms: _200  and  _201
REMARK   73  A    between atoms: _200  and  _203
REMARK   74  A    between atoms: _203  and  _204
REMARK   75  A    between atoms: _209  and  _211
REMARK   76  A    between atoms: _211  and  _212
REMARK   77  A    between atoms: _214  and  _216
REMARK   78  A    between atoms: _216  and  _217
REMARK   79  A    between atoms: _216  and  _219
REMARK   80  A    between atoms: _219  and  _220
REMARK   81  A    between atoms: _223  and  _225
REMARK   82  A    between atoms: _225  and  _226
REMARK   83  A    between atoms: _225  and  _228
REMARK   84  A    between atoms: _228  and  _229
REMARK   85  A    between atoms: _232  and  _234
REMARK   86  A    between atoms: _234  and  _235
REMARK   87  A    between atoms: _234  and  _237
REMARK   88  A    between atoms: _237  and  _238
REMARK   89  A    between atoms: _238  and  _239
REMARK   90  A    between atoms: _239  and  _240
REMARK   91  A    between atoms: _249  and  _251
REMARK   92  A    between atoms: _251  and  _252
REMARK   93  A    between atoms: _251  and  _254
REMARK   94  A    between atoms: _254  and  _255
REMARK   95  A    between atoms: _258  and  _260
REMARK   96  A    between atoms: _260  and  _261
REMARK   97  A    between atoms: _260  and  _263
REMARK   98  A    between atoms: _263  and  _264
REMARK   99  A    between atoms: _267  and  _269
REMARK  100  A    between atoms: _269  and  _270
REMARK  101  A    between atoms: _269  and  _272
REMARK  102  A    between atoms: _272  and  _273
REMARK  103  A    between atoms: _273  and  _274
REMARK  104  A    between atoms: _278  and  _279
REMARK  105  A    between atoms: _284  and  _286
REMARK  106  A    between atoms: _286  and  _287
REMARK  107  A    between atoms: _286  and  _289
REMARK  108  A    between atoms: _289  and  _290
REMARK  109  A    between atoms: _293  and  _295
REMARK  110  A    between atoms: _295  and  _296
REMARK  111  A    between atoms: _295  and  _298
REMARK  112  A    between atoms: _298  and  _299
REMARK  113  A    between atoms: _305  and  _307
REMARK  114  A    between atoms: _307  and  _308
REMARK  115  A    between atoms: _307  and  _310
REMARK  116  A    between atoms: _310  and  _311
REMARK  117  A    between atoms: _316  and  _318
REMARK  118  A    between atoms: _318  and  _319
REMARK  119  A    between atoms: _318  and  _321
REMARK  120  A    between atoms: _321  and  _322
REMARK  121  A    between atoms: _326  and  FE_441
REMARK  122  A    between atoms: _327  and  _329
REMARK  123  A    between atoms: _329  and  _330
REMARK  124  A    between atoms: _329  and  _332
REMARK  125  A    between atoms: _332  and  _333
REMARK  126  A    between atoms: _333  and  _334
REMARK  127  A    between atoms: _337  and  _339
REMARK  128  A    between atoms: _339  and  _340
REMARK  129  A    between atoms: _339  and  _342
REMARK  130  A    between atoms: _345  and  _347
REMARK  131  A    between atoms: _347  and  _348
REMARK  132  A    between atoms: _347  and  _350
REMARK  133  A    between atoms: _350  and  _351
REMARK  134  A    between atoms: _351  and  _352
REMARK  135  A    between atoms: _357  and  _359
REMARK  136  A    between atoms: _359  and  _360
REMARK  137  A    between atoms: _359  and  _362
REMARK  138  A    between atoms: _362  and  _363
REMARK  139  A    between atoms: _363  and  _364
REMARK  140  A    between atoms: _364  and  _365
REMARK  141  A    between atoms: _374  and  _376
REMARK  142  A    between atoms: _376  and  _377
REMARK  143  A    between atoms: _376  and  _379
REMARK  144  A    between atoms: _379  and  _380
REMARK  145  A    between atoms: _385  and  _386
REMARK  146  A    between atoms: _388  and  _390
REMARK  147  A    between atoms: _390  and  _391
REMARK  148  A    between atoms: _394  and  _396
REMARK  149  A    between atoms: _396  and  _397
REMARK  150  A    between atoms: _396  and  _399
REMARK  151  A    between atoms: _399  and  _400
REMARK  152  A    between atoms: _403  and  _405
REMARK  153  A    between atoms: _405  and  _406
REMARK  154  A    between atoms: _405  and  _408
REMARK  155  A    between atoms: _408  and  _409
REMARK  156  A    between atoms: _412  and  _414
REMARK  157  A    between atoms: _414  and  _415
REMARK  158  A    between atoms: _414  and  _417
REMARK  159  A    between atoms: _417  and  _418
REMARK  160  A    between atoms: _428  and  _430
REMARK  161  A    between atoms: _430  and  _431
REMARK  162  A    between atoms: _430  and  _433
REMARK  163  A    between atoms: _433  and  _434
REMARK  164  A    between atoms: _434  and  _435
REMARK  165  A    between atoms: _435  and  _436
REMARK  166  A    between atoms: _436  and  _437
REMARK                            x       y       z     vdW  Elec       q    Type
REMARK                         _______ _______ _______ _____ _____    ______ ____
ROOT
ATOM      1  CG  TRP A   1       7.652  19.702  -6.163  0.00  0.00    +0.000 A 
ATOM      2  CD2 TRP A   1       9.032  19.636  -5.793  0.00  0.00    +0.000 A 
ATOM      3  CE3 TRP A   1       9.829  18.659  -5.186  0.00  0.00    +0.000 A 
ATOM      4  CZ3 TRP A   1      11.175  18.947  -4.943  0.00  0.00    +0.000 A 
ATOM      5  CH2 TRP A   1      11.728  20.190  -5.302  0.00  0.00    +0.000 A 
ATOM      6  CZ2 TRP A   1      10.963  21.170  -5.893  0.00  0.00    +0.000 A 
ATOM      7  CE2 TRP A   1       9.610  20.878  -6.131  0.00  0.00    +0.000 A 
ATOM      8  NE1 TRP A   1       8.623  21.651  -6.681  0.00  0.00    +0.000 N 
ATOM      9  HE1 TRP A   1       8.741  22.626  -7.024  0.00  0.00    +0.000 HD
ATOM     10  CD1 TRP A   1       7.460  20.939  -6.708  0.00  0.00    +0.000 A 
ENDROOT
BRANCH   1  11
ATOM     11  CB  TRP A   1       6.647  18.633  -6.030  0.00  0.00    +0.000 C 
BRANCH  11  12
ATOM     12  CA  TRP A   1       5.840  18.679  -4.739  0.00  0.00    +0.000 C 
BRANCH  12  13
ATOM     13  N   TRP A   1       6.660  18.302  -3.592  0.00  0.00    +0.000 NA
ATOM     14  H   TRP A   1       7.188  17.406  -3.616  0.00  0.00    +0.000 HD
ENDBRANCH  12  13
BRANCH  12  15
ATOM     15  C   TRP A   1       4.667  17.720  -4.844  0.00  0.00    +0.000 C 
ATOM     16  O   TRP A   1       4.829  16.536  -4.604  0.00  0.00    +0.000 OA
ENDBRANCH  12  15
ENDBRANCH  11  12
ENDBRANCH   1  11
TORSDOF 4
REMARK  Name = ../refined-set-2016/3ouj/3ouj_pocket.pdb
REMARK  166 active torsions:
REMARK  status: ('A' for Active; 'I' for Inactive)
REMARK    1  A    between atoms: _1  and  _3
REMARK    2  A    between atoms: _3  and  _4
REMARK    3  A    between atoms: _3  and  _6
REMARK    4  A    between atoms: _6  and  _7
REMARK    5  A    between atoms: _9  and  _11
REMARK    6  A    between atoms: _11  and  _12
REMARK    7  A    between atoms: _11  and  _14
REMARK    8  A    between atoms: _14  and  _15
REMARK    9  A    between atoms: _15  and  _16
REMARK   10  A    between atoms: _16  and  _17
REMARK   11  A    between atoms: _26  and  _28
REMARK   12  A    between atoms: _28  and  _29
REMARK   13  A    between atoms: _28  and  _31
REMARK   14  A    between atoms: _31  and  _32
REMARK   15  A    between atoms: _35  and  _37
REMARK   16  A    between atoms: _37  and  _38
REMARK   17  A    between atoms: _37  and  _40
REMARK   18  A    between atoms: _40  and  _41
REMARK   19  A    between atoms: _44  and  _46
REMARK   20  A    between atoms: _46  and  _47
REMARK   21  A    between atoms: _46  and  _49
REMARK   22  A    between atoms: _49  and  _50
REMARK   23  A    between atoms: _50  and  _51
REMARK   24  A    between atoms: _53  and  _55
REMARK   25  A    between atoms: _55  and  _56
REMARK   26  A    between atoms: _59  and  _61
REMARK   27  A    between atoms: _61  and  _62
REMARK   28  A    between atoms: _61  and  _64
REMARK   29  A    between atoms: _66  and  _68
REMARK   30  A    between atoms: _68  and  _69
REMARK   31  A    between atoms: _68  and  _71
REMARK   32  A    between atoms: _71  and  _72
REMARK   33  A    between atoms: _77  and  _78
REMARK   34  A    between atoms: _80  and  _82
REMARK   35  A    between atoms: _82  and  _83
REMARK   36  A    between atoms: _85  and  _87
REMARK   37  A    between atoms: _87  and  _88
REMARK   38  A    between atoms: _87  and  _90
REMARK   39  A    between atoms: _90  and  _91
REMARK   40  A    between atoms: _96  and  _97
REMARK   41  A    between atoms: _99  and  _101
REMARK   42  A    between atoms: _101  and  _102
REMARK   43  A    between atoms: _101  and  _104
REMARK   44  A    between atoms: _107  and  _109
REMARK   45  A    between atoms: _120  and  _123
REMARK   46  A    between atoms: _128  and  _129
REMARK   47  A    between atoms: _135  and  _137
REMARK   48  A    between atoms: _137  and  _138
REMARK   49  A    between atoms: _137  and  _140
REMARK   50  A    between atoms: _140  and  _141
REMARK   51  A    between atoms: _141  and  _142
REMARK   52  A    between atoms: _142  and  _143
REMARK   53  A    between atoms: _152  and  _154
REMARK   54  A    between atoms: _154  and  _155
REMARK   55  A    between atoms: _154  and  _157
REMARK   56  A    between atoms: _157  and  _158
REMARK   57  A    between atoms: _161  and  _163
REMARK   58  A    between atoms: _163  and  _164
REMARK   59  A    between atoms: _163  and  _166
REMARK   60  A    between atoms: _166  and  _167
REMARK   61  A    between atoms: _170  and  _172
REMARK   62  A    between atoms: _172  and  _173
REMARK   63  A    between atoms: _172  and  _175
REMARK   64  A    between atoms: _175  and  _176
REMARK   65  A    between atoms: _181  and  _182
REMARK   66  A    between atoms: _184  and  _186
REMARK   67  A    between atoms: _186  and  _187
REMARK   68  A    between atoms: _186  and  _189
REMARK   69  A    between atoms: _189  and  _190
REMARK   70  A    between atoms: _195  and  _196
REMARK   71  A    between atoms: _198  and  _200
REMARK   72  A    between atoms: _200  and  _201
REMARK   73  A    between atoms: _200  and  _203
REMARK   74  A    between atoms: _203  and  _204
REMARK   75  A    between atoms: _209  and  _211
REMARK   76  A    between atoms: _211  and  _212
REMARK   77  A    between atoms: _214  and  _216
REMARK   78  A    between atoms: _216  and  _217
REMARK   79  A    between atoms: _216  and  _219
REMARK   80  A    between atoms: _219  and  _220
REMARK   81  A    between atoms: _223  and  _225
REMARK   82  A    between atoms: _225  and  _226
REMARK   83  A    between atoms: _225  and  _228
REMARK   84  A    between atoms: _228  and  _229
REMARK   85  A    between atoms: _232  and  _234
REMARK   86  A    between atoms: _234  and  _235
REMARK   87  A    between atoms: _234  and  _237
REMARK   88  A    between atoms: _237  and  _238
REMARK   89  A    between atoms: _238  and  _239
REMARK   90  A    between atoms: _239  and  _240
REMARK   91  A    between atoms: _249  and  _251
REMARK   92  A    between atoms: _251  and  _252
REMARK   93  A    between atoms: _251  and  _254
REMARK   94  A    between atoms: _254  and  _255
REMARK   95  A    between atoms: _258  and  _260
REMARK   96  A    between atoms: _260  and  _261
REMARK   97  A    between atoms: _260  and  _263
REMARK   98  A    between atoms: _263  and  _264
REMARK   99  A    between atoms: _267  and  _269
REMARK  100  A    between atoms: _269  and  _270
REMARK  101  A    between atoms: _269  and  _272
REMARK  102  A    between atoms: _272  and  _273
REMARK  103  A    between atoms: _273  and  _274
REMARK  104  A    between atoms: _278  and  _279
REMARK  105  A    between atoms: _284  and  _286
REMARK  106  A    between atoms: _286  and  _287
REMARK  107  A    between atoms: _286  and  _289
REMARK  108  A    between atoms: _289  and  _290
REMARK  109  A    between atoms: _293  and  _295
REMARK  110  A    between atoms: _295  and  _296
REMARK  111  A    between atoms: _295  and  _298
REMARK  112  A    between atoms: _298  and  _299
REMARK  113  A    between atoms: _305  and  _307
REMARK  114  A    between atoms: _307  and  _308
REMARK  115  A    between atoms: _307  and  _310
REMARK  116  A    between atoms: _310  and  _311
REMARK  117  A    between atoms: _316  and  _318
REMARK  118  A    between atoms: _318  and  _319
REMARK  119  A    between atoms: _318  and  _321
REMARK  120  A    between atoms: _321  and  _322
REMARK  121  A    between atoms: _326  and  FE_441
REMARK  122  A    between atoms: _327  and  _329
REMARK  123  A    between atoms: _329  and  _330
REMARK  124  A    between atoms: _329  and  _332
REMARK  125  A    between atoms: _332  and  _333
REMARK  126  A    between atoms: _333  and  _334
REMARK  127  A    between atoms: _337  and  _339
REMARK  128  A    between atoms: _339  and  _340
REMARK  129  A    between atoms: _339  and  _342
REMARK  130  A    between atoms: _345  and  _347
REMARK  131  A    between atoms: _347  and  _348
REMARK  132  A    between atoms: _347  and  _350
REMARK  133  A    between atoms: _350  and  _351
REMARK  134  A    between atoms: _351  and  _352
REMARK  135  A    between atoms: _357  and  _359
REMARK  136  A    between atoms: _359  and  _360
REMARK  137  A    between atoms: _359  and  _362
REMARK  138  A    between atoms: _362  and  _363
REMARK  139  A    between atoms: _363  and  _364
REMARK  140  A    between atoms: _364  and  _365
REMARK  141  A    between atoms: _374  and  _376
REMARK  142  A    between atoms: _376  and  _377
REMARK  143  A    between atoms: _376  and  _379
REMARK  144  A    between atoms: _379  and  _380
REMARK  145  A    between atoms: _385  and  _386
REMARK  146  A    between atoms: _388  and  _390
REMARK  147  A    between atoms: _390  and  _391
REMARK  148  A    between atoms: _394  and  _396
REMARK  149  A    between atoms: _396  and  _397
REMARK  150  A    between atoms: _396  and  _399
REMARK  151  A    between atoms: _399  and  _400
REMARK  152  A    between atoms: _403  and  _405
REMARK  153  A    between atoms: _405  and  _406
REMARK  154  A    between atoms: _405  and  _408
REMARK  155  A    between atoms: _408  and  _409
REMARK  156  A    between atoms: _412  and  _414
REMARK  157  A    between atoms: _414  and  _415
REMARK  158  A    between atoms: _414  and  _417
REMARK  159  A    between atoms: _417  and  _418
REMARK  160  A    between atoms: _428  and  _430
REMARK  161  A    between atoms: _430  and  _431
REMARK  162  A    between atoms: _430  and  _433
REMARK  163  A    between atoms: _433  and  _434
REMARK  164  A    between atoms: _434  and  _435
REMARK  165  A    between atoms: _435  and  _436
REMARK  166  A    between atoms: _436  and  _437
REMARK                            x       y       z     vdW  Elec       q    Type
REMARK                         _______ _______ _______ _____ _____    ______ ____
ROOT
ATOM      1  CG  LYS A   1      12.935  16.291  -8.860  0.00  0.00    +0.000 C 
ENDROOT
BRANCH   1   2
ATOM      2  CB  LYS A   1      11.854  15.420  -9.484  0.00  0.00    +0.000 C 
BRANCH   2   3
ATOM      3  CA  LYS A   1      11.425  14.204  -8.650  0.00  0.00    +0.000 C 
BRANCH   3   4
ATOM      4  N   LYS A   1      12.564  13.317  -8.401  0.00  0.00    +0.000 NA
ATOM      5  H   LYS A   1      13.488  13.566  -8.808  0.00  0.00    +0.000 HD
ENDBRANCH   3   4
BRANCH   3   6
ATOM      6  C   LYS A   1      10.288  13.493  -9.397  0.00  0.00    +0.000 C 
ATOM      7  O   LYS A   1       9.176  14.001  -9.431  0.00  0.00    +0.000 OA
ENDBRANCH   3   6
ENDBRANCH   2   3
ENDBRANCH   1   2
BRANCH   1   8
ATOM      8  CD  LYS A   1      13.148  17.572  -9.652  0.00  0.00    +0.000 C 
BRANCH   8   9
ATOM      9  CE  LYS A   1      14.428  18.304  -9.228  0.00  0.00    +0.000 C 
BRANCH   9  10
ATOM     10  NZ  LYS A   1      14.686  18.253  -7.748  0.00  0.00    +0.000 N 
ATOM     11  HZ1 LYS A   1      13.892  18.696  -7.243  0.00  0.00    +0.000 HD
ATOM     12  HZ2 LYS A   1      14.780  17.262  -7.448  0.00  0.00    +0.000 HD
ATOM     13  HZ3 LYS A   1      15.565  18.766  -7.533  0.00  0.00    +0.000 HD
ENDBRANCH   9  10
ENDBRANCH   8   9
ENDBRANCH   1   8
TORSDOF 7
REMARK  Name = ../refined-set-2016/3ouj/3ouj_pocket.pdb
REMARK  166 active torsions:
REMARK  status: ('A' for Active; 'I' for Inactive)
REMARK    1  A    between atoms: _1  and  _3
REMARK    2  A    between atoms: _3  and  _4
REMARK    3  A    between atoms: _3  and  _6
REMARK    4  A    between atoms: _6  and  _7
REMARK    5  A    between atoms: _9  and  _11
REMARK    6  A    between atoms: _11  and  _12
REMARK    7  A    between atoms: _11  and  _14
REMARK    8  A    between atoms: _14  and  _15
REMARK    9  A    between atoms: _15  and  _16
REMARK   10  A    between atoms: _16  and  _17
REMARK   11  A    between atoms: _26  and  _28
REMARK   12  A    between atoms: _28  and  _29
REMARK   13  A    between atoms: _28  and  _31
REMARK   14  A    between atoms: _31  and  _32
REMARK   15  A    between atoms: _35  and  _37
REMARK   16  A    between atoms: _37  and  _38
REMARK   17  A    between atoms: _37  and  _40
REMARK   18  A    between atoms: _40  and  _41
REMARK   19  A    between atoms: _44  and  _46
REMARK   20  A    between atoms: _46  and  _47
REMARK   21  A    between atoms: _46  and  _49
REMARK   22  A    between atoms: _49  and  _50
REMARK   23  A    between atoms: _50  and  _51
REMARK   24  A    between atoms: _53  and  _55
REMARK   25  A    between atoms: _55  and  _56
REMARK   26  A    between atoms: _59  and  _61
REMARK   27  A    between atoms: _61  and  _62
REMARK   28  A    between atoms: _61  and  _64
REMARK   29  A    between atoms: _66  and  _68
REMARK   30  A    between atoms: _68  and  _69
REMARK   31  A    between atoms: _68  and  _71
REMARK   32  A    between atoms: _71  and  _72
REMARK   33  A    between atoms: _77  and  _78
REMARK   34  A    between atoms: _80  and  _82
REMARK   35  A    between atoms: _82  and  _83
REMARK   36  A    between atoms: _85  and  _87
REMARK   37  A    between atoms: _87  and  _88
REMARK   38  A    between atoms: _87  and  _90
REMARK   39  A    between atoms: _90  and  _91
REMARK   40  A    between atoms: _96  and  _97
REMARK   41  A    between atoms: _99  and  _101
REMARK   42  A    between atoms: _101  and  _102
REMARK   43  A    between atoms: _101  and  _104
REMARK   44  A    between atoms: _107  and  _109
REMARK   45  A    between atoms: _120  and  _123
REMARK   46  A    between atoms: _128  and  _129
REMARK   47  A    between atoms: _135  and  _137
REMARK   48  A    between atoms: _137  and  _138
REMARK   49  A    between atoms: _137  and  _140
REMARK   50  A    between atoms: _140  and  _141
REMARK   51  A    between atoms: _141  and  _142
REMARK   52  A    between atoms: _142  and  _143
REMARK   53  A    between atoms: _152  and  _154
REMARK   54  A    between atoms: _154  and  _155
REMARK   55  A    between atoms: _154  and  _157
REMARK   56  A    between atoms: _157  and  _158
REMARK   57  A    between atoms: _161  and  _163
REMARK   58  A    between atoms: _163  and  _164
REMARK   59  A    between atoms: _163  and  _166
REMARK   60  A    between atoms: _166  and  _167
REMARK   61  A    between atoms: _170  and  _172
REMARK   62  A    between atoms: _172  and  _173
REMARK   63  A    between atoms: _172  and  _175
REMARK   64  A    between atoms: _175  and  _176
REMARK   65  A    between atoms: _181  and  _182
REMARK   66  A    between atoms: _184  and  _186
REMARK   67  A    between atoms: _186  and  _187
REMARK   68  A    between atoms: _186  and  _189
REMARK   69  A    between atoms: _189  and  _190
REMARK   70  A    between atoms: _195  and  _196
REMARK   71  A    between atoms: _198  and  _200
REMARK   72  A    between atoms: _200  and  _201
REMARK   73  A    between atoms: _200  and  _203
REMARK   74  A    between atoms: _203  and  _204
REMARK   75  A    between atoms: _209  and  _211
REMARK   76  A    between atoms: _211  and  _212
REMARK   77  A    between atoms: _214  and  _216
REMARK   78  A    between atoms: _216  and  _217
REMARK   79  A    between atoms: _216  and  _219
REMARK   80  A    between atoms: _219  and  _220
REMARK   81  A    between atoms: _223  and  _225
REMARK   82  A    between atoms: _225  and  _226
REMARK   83  A    between atoms: _225  and  _228
REMARK   84  A    between atoms: _228  and  _229
REMARK   85  A    between atoms: _232  and  _234
REMARK   86  A    between atoms: _234  and  _235
REMARK   87  A    between atoms: _234  and  _237
REMARK   88  A    between atoms: _237  and  _238
REMARK   89  A    between atoms: _238  and  _239
REMARK   90  A    between atoms: _239  and  _240
REMARK   91  A    between atoms: _249  and  _251
REMARK   92  A    between atoms: _251  and  _252
REMARK   93  A    between atoms: _251  and  _254
REMARK   94  A    between atoms: _254  and  _255
REMARK   95  A    between atoms: _258  and  _260
REMARK   96  A    between atoms: _260  and  _261
REMARK   97  A    between atoms: _260  and  _263
REMARK   98  A    between atoms: _263  and  _264
REMARK   99  A    between atoms: _267  and  _269
REMARK  100  A    between atoms: _269  and  _270
REMARK  101  A    between atoms: _269  and  _272
REMARK  102  A    between atoms: _272  and  _273
REMARK  103  A    between atoms: _273  and  _274
REMARK  104  A    between atoms: _278  and  _279
REMARK  105  A    between atoms: _284  and  _286
REMARK  106  A    between atoms: _286  and  _287
REMARK  107  A    between atoms: _286  and  _289
REMARK  108  A    between atoms: _289  and  _290
REMARK  109  A    between atoms: _293  and  _295
REMARK  110  A    between atoms: _295  and  _296
REMARK  111  A    between atoms: _295  and  _298
REMARK  112  A    between atoms: _298  and  _299
REMARK  113  A    between atoms: _305  and  _307
REMARK  114  A    between atoms: _307  and  _308
REMARK  115  A    between atoms: _307  and  _310
REMARK  116  A    between atoms: _310  and  _311
REMARK  117  A    between atoms: _316  and  _318
REMARK  118  A    between atoms: _318  and  _319
REMARK  119  A    between atoms: _318  and  _321
REMARK  120  A    between atoms: _321  and  _322
REMARK  121  A    between atoms: _326  and  FE_441
REMARK  122  A    between atoms: _327  and  _329
REMARK  123  A    between atoms: _329  and  _330
REMARK  124  A    between atoms: _329  and  _332
REMARK  125  A    between atoms: _332  and  _333
REMARK  126  A    between atoms: _333  and  _334
REMARK  127  A    between atoms: _337  and  _339
REMARK  128  A    between atoms: _339  and  _340
REMARK  129  A    between atoms: _339  and  _342
REMARK  130  A    between atoms: _345  and  _347
REMARK  131  A    between atoms: _347  and  _348
REMARK  132  A    between atoms: _347  and  _350
REMARK  133  A    between atoms: _350  and  _351
REMARK  134  A    between atoms: _351  and  _352
REMARK  135  A    between atoms: _357  and  _359
REMARK  136  A    between atoms: _359  and  _360
REMARK  137  A    between atoms: _359  and  _362
REMARK  138  A    between atoms: _362  and  _363
REMARK  139  A    between atoms: _363  and  _364
REMARK  140  A    between atoms: _364  and  _365
REMARK  141  A    between atoms: _374  and  _376
REMARK  142  A    between atoms: _376  and  _377
REMARK  143  A    between atoms: _376  and  _379
REMARK  144  A    between atoms: _379  and  _380
REMARK  145  A    between atoms: _385  and  _386
REMARK  146  A    between atoms: _388  and  _390
REMARK  147  A    between atoms: _390  and  _391
REMARK  148  A    between atoms: _394  and  _396
REMARK  149  A    between atoms: _396  and  _397
REMARK  150  A    between atoms: _396  and  _399
REMARK  151  A    between atoms: _399  and  _400
REMARK  152  A    between atoms: _403  and  _405
REMARK  153  A    between atoms: _405  and  _406
REMARK  154  A    between atoms: _405  and  _408
REMARK  155  A    between atoms: _408  and  _409
REMARK  156  A    between atoms: _412  and  _414
REMARK  157  A    between atoms: _414  and  _415
REMARK  158  A    between atoms: _414  and  _417
REMARK  159  A    between atoms: _417  and  _418
REMARK  160  A    between atoms: _428  and  _430
REMARK  161  A    between atoms: _430  and  _431
REMARK  162  A    between atoms: _430  and  _433
REMARK  163  A    between atoms: _433  and  _434
REMARK  164  A    between atoms: _434  and  _435
REMARK  165  A    between atoms: _435  and  _436
REMARK  166  A    between atoms: _436  and  _437
REMARK                            x       y       z     vdW  Elec       q    Type
REMARK                         _______ _______ _______ _____ _____    ______ ____
ROOT
ATOM      1  O   HOH     1       7.898  27.333 -10.507  0.00  0.00    +0.000 OA
ENDROOT
TORSDOF 0
REMARK  Name = ../refined-set-2016/3ouj/3ouj_pocket.pdb
REMARK  166 active torsions:
REMARK  status: ('A' for Active; 'I' for Inactive)
REMARK    1  A    between atoms: _1  and  _3
REMARK    2  A    between atoms: _3  and  _4
REMARK    3  A    between atoms: _3  and  _6
REMARK    4  A    between atoms: _6  and  _7
REMARK    5  A    between atoms: _9  and  _11
REMARK    6  A    between atoms: _11  and  _12
REMARK    7  A    between atoms: _11  and  _14
REMARK    8  A    between atoms: _14  and  _15
REMARK    9  A    between atoms: _15  and  _16
REMARK   10  A    between atoms: _16  and  _17
REMARK   11  A    between atoms: _26  and  _28
REMARK   12  A    between atoms: _28  and  _29
REMARK   13  A    between atoms: _28  and  _31
REMARK   14  A    between atoms: _31  and  _32
REMARK   15  A    between atoms: _35  and  _37
REMARK   16  A    between atoms: _37  and  _38
REMARK   17  A    between atoms: _37  and  _40
REMARK   18  A    between atoms: _40  and  _41
REMARK   19  A    between atoms: _44  and  _46
REMARK   20  A    between atoms: _46  and  _47
REMARK   21  A    between atoms: _46  and  _49
REMARK   22  A    between atoms: _49  and  _50
REMARK   23  A    between atoms: _50  and  _51
REMARK   24  A    between atoms: _53  and  _55
REMARK   25  A    between atoms: _55  and  _56
REMARK   26  A    between atoms: _59  and  _61
REMARK   27  A    between atoms: _61  and  _62
REMARK   28  A    between atoms: _61  and  _64
REMARK   29  A    between atoms: _66  and  _68
REMARK   30  A    between atoms: _68  and  _69
REMARK   31  A    between atoms: _68  and  _71
REMARK   32  A    between atoms: _71  and  _72
REMARK   33  A    between atoms: _77  and  _78
REMARK   34  A    between atoms: _80  and  _82
REMARK   35  A    between atoms: _82  and  _83
REMARK   36  A    between atoms: _85  and  _87
REMARK   37  A    between atoms: _87  and  _88
REMARK   38  A    between atoms: _87  and  _90
REMARK   39  A    between atoms: _90  and  _91
REMARK   40  A    between atoms: _96  and  _97
REMARK   41  A    between atoms: _99  and  _101
REMARK   42  A    between atoms: _101  and  _102
REMARK   43  A    between atoms: _101  and  _104
REMARK   44  A    between atoms: _107  and  _109
REMARK   45  A    between atoms: _120  and  _123
REMARK   46  A    between atoms: _128  and  _129
REMARK   47  A    between atoms: _135  and  _137
REMARK   48  A    between atoms: _137  and  _138
REMARK   49  A    between atoms: _137  and  _140
REMARK   50  A    between atoms: _140  and  _141
REMARK   51  A    between atoms: _141  and  _142
REMARK   52  A    between atoms: _142  and  _143
REMARK   53  A    between atoms: _152  and  _154
REMARK   54  A    between atoms: _154  and  _155
REMARK   55  A    between atoms: _154  and  _157
REMARK   56  A    between atoms: _157  and  _158
REMARK   57  A    between atoms: _161  and  _163
REMARK   58  A    between atoms: _163  and  _164
REMARK   59  A    between atoms: _163  and  _166
REMARK   60  A    between atoms: _166  and  _167
REMARK   61  A    between atoms: _170  and  _172
REMARK   62  A    between atoms: _172  and  _173
REMARK   63  A    between atoms: _172  and  _175
REMARK   64  A    between atoms: _175  and  _176
REMARK   65  A    between atoms: _181  and  _182
REMARK   66  A    between atoms: _184  and  _186
REMARK   67  A    between atoms: _186  and  _187
REMARK   68  A    between atoms: _186  and  _189
REMARK   69  A    between atoms: _189  and  _190
REMARK   70  A    between atoms: _195  and  _196
REMARK   71  A    between atoms: _198  and  _200
REMARK   72  A    between atoms: _200  and  _201
REMARK   73  A    between atoms: _200  and  _203
REMARK   74  A    between atoms: _203  and  _204
REMARK   75  A    between atoms: _209  and  _211
REMARK   76  A    between atoms: _211  and  _212
REMARK   77  A    between atoms: _214  and  _216
REMARK   78  A    between atoms: _216  and  _217
REMARK   79  A    between atoms: _216  and  _219
REMARK   80  A    between atoms: _219  and  _220
REMARK   81  A    between atoms: _223  and  _225
REMARK   82  A    between atoms: _225  and  _226
REMARK   83  A    between atoms: _225  and  _228
REMARK   84  A    between atoms: _228  and  _229
REMARK   85  A    between atoms: _232  and  _234
REMARK   86  A    between atoms: _234  and  _235
REMARK   87  A    between atoms: _234  and  _237
REMARK   88  A    between atoms: _237  and  _238
REMARK   89  A    between atoms: _238  and  _239
REMARK   90  A    between atoms: _239  and  _240
REMARK   91  A    between atoms: _249  and  _251
REMARK   92  A    between atoms: _251  and  _252
REMARK   93  A    between atoms: _251  and  _254
REMARK   94  A    between atoms: _254  and  _255
REMARK   95  A    between atoms: _258  and  _260
REMARK   96  A    between atoms: _260  and  _261
REMARK   97  A    between atoms: _260  and  _263
REMARK   98  A    between atoms: _263  and  _264
REMARK   99  A    between atoms: _267  and  _269
REMARK  100  A    between atoms: _269  and  _270
REMARK  101  A    between atoms: _269  and  _272
REMARK  102  A    between atoms: _272  and  _273
REMARK  103  A    between atoms: _273  and  _274
REMARK  104  A    between atoms: _278  and  _279
REMARK  105  A    between atoms: _284  and  _286
REMARK  106  A    between atoms: _286  and  _287
REMARK  107  A    between atoms: _286  and  _289
REMARK  108  A    between atoms: _289  and  _290
REMARK  109  A    between atoms: _293  and  _295
REMARK  110  A    between atoms: _295  and  _296
REMARK  111  A    between atoms: _295  and  _298
REMARK  112  A    between atoms: _298  and  _299
REMARK  113  A    between atoms: _305  and  _307
REMARK  114  A    between atoms: _307  and  _308
REMARK  115  A    between atoms: _307  and  _310
REMARK  116  A    between atoms: _310  and  _311
REMARK  117  A    between atoms: _316  and  _318
REMARK  118  A    between atoms: _318  and  _319
REMARK  119  A    between atoms: _318  and  _321
REMARK  120  A    between atoms: _321  and  _322
REMARK  121  A    between atoms: _326  and  FE_441
REMARK  122  A    between atoms: _327  and  _329
REMARK  123  A    between atoms: _329  and  _330
REMARK  124  A    between atoms: _329  and  _332
REMARK  125  A    between atoms: _332  and  _333
REMARK  126  A    between atoms: _333  and  _334
REMARK  127  A    between atoms: _337  and  _339
REMARK  128  A    between atoms: _339  and  _340
REMARK  129  A    between atoms: _339  and  _342
REMARK  130  A    between atoms: _345  and  _347
REMARK  131  A    between atoms: _347  and  _348
REMARK  132  A    between atoms: _347  and  _350
REMARK  133  A    between atoms: _350  and  _351
REMARK  134  A    between atoms: _351  and  _352
REMARK  135  A    between atoms: _357  and  _359
REMARK  136  A    between atoms: _359  and  _360
REMARK  137  A    between atoms: _359  and  _362
REMARK  138  A    between atoms: _362  and  _363
REMARK  139  A    between atoms: _363  and  _364
REMARK  140  A    between atoms: _364  and  _365
REMARK  141  A    between atoms: _374  and  _376
REMARK  142  A    between atoms: _376  and  _377
REMARK  143  A    between atoms: _376  and  _379
REMARK  144  A    between atoms: _379  and  _380
REMARK  145  A    between atoms: _385  and  _386
REMARK  146  A    between atoms: _388  and  _390
REMARK  147  A    between atoms: _390  and  _391
REMARK  148  A    between atoms: _394  and  _396
REMARK  149  A    between atoms: _396  and  _397
REMARK  150  A    between atoms: _396  and  _399
REMARK  151  A    between atoms: _399  and  _400
REMARK  152  A    between atoms: _403  and  _405
REMARK  153  A    between atoms: _405  and  _406
REMARK  154  A    between atoms: _405  and  _408
REMARK  155  A    between atoms: _408  and  _409
REMARK  156  A    between atoms: _412  and  _414
REMARK  157  A    between atoms: _414  and  _415
REMARK  158  A    between atoms: _414  and  _417
REMARK  159  A    between atoms: _417  and  _418
REMARK  160  A    between atoms: _428  and  _430
REMARK  161  A    between atoms: _430  and  _431
REMARK  162  A    between atoms: _430  and  _433
REMARK  163  A    between atoms: _433  and  _434
REMARK  164  A    between atoms: _434  and  _435
REMARK  165  A    between atoms: _435  and  _436
REMARK  166  A    between atoms: _436  and  _437
REMARK                            x       y       z     vdW  Elec       q    Type
REMARK                         _______ _______ _______ _____ _____    ______ ____
ROOT
ATOM      1  O   HOH     1      12.422  21.091  -9.517  0.00  0.00    +0.000 OA
ENDROOT
TORSDOF 0
REMARK  Name = ../refined-set-2016/3ouj/3ouj_pocket.pdb
REMARK  166 active torsions:
REMARK  status: ('A' for Active; 'I' for Inactive)
REMARK    1  A    between atoms: _1  and  _3
REMARK    2  A    between atoms: _3  and  _4
REMARK    3  A    between atoms: _3  and  _6
REMARK    4  A    between atoms: _6  and  _7
REMARK    5  A    between atoms: _9  and  _11
REMARK    6  A    between atoms: _11  and  _12
REMARK    7  A    between atoms: _11  and  _14
REMARK    8  A    between atoms: _14  and  _15
REMARK    9  A    between atoms: _15  and  _16
REMARK   10  A    between atoms: _16  and  _17
REMARK   11  A    between atoms: _26  and  _28
REMARK   12  A    between atoms: _28  and  _29
REMARK   13  A    between atoms: _28  and  _31
REMARK   14  A    between atoms: _31  and  _32
REMARK   15  A    between atoms: _35  and  _37
REMARK   16  A    between atoms: _37  and  _38
REMARK   17  A    between atoms: _37  and  _40
REMARK   18  A    between atoms: _40  and  _41
REMARK   19  A    between atoms: _44  and  _46
REMARK   20  A    between atoms: _46  and  _47
REMARK   21  A    between atoms: _46  and  _49
REMARK   22  A    between atoms: _49  and  _50
REMARK   23  A    between atoms: _50  and  _51
REMARK   24  A    between atoms: _53  and  _55
REMARK   25  A    between atoms: _55  and  _56
REMARK   26  A    between atoms: _59  and  _61
REMARK   27  A    between atoms: _61  and  _62
REMARK   28  A    between atoms: _61  and  _64
REMARK   29  A    between atoms: _66  and  _68
REMARK   30  A    between atoms: _68  and  _69
REMARK   31  A    between atoms: _68  and  _71
REMARK   32  A    between atoms: _71  and  _72
REMARK   33  A    between atoms: _77  and  _78
REMARK   34  A    between atoms: _80  and  _82
REMARK   35  A    between atoms: _82  and  _83
REMARK   36  A    between atoms: _85  and  _87
REMARK   37  A    between atoms: _87  and  _88
REMARK   38  A    between atoms: _87  and  _90
REMARK   39  A    between atoms: _90  and  _91
REMARK   40  A    between atoms: _96  and  _97
REMARK   41  A    between atoms: _99  and  _101
REMARK   42  A    between atoms: _101  and  _102
REMARK   43  A    between atoms: _101  and  _104
REMARK   44  A    between atoms: _107  and  _109
REMARK   45  A    between atoms: _120  and  _123
REMARK   46  A    between atoms: _128  and  _129
REMARK   47  A    between atoms: _135  and  _137
REMARK   48  A    between atoms: _137  and  _138
REMARK   49  A    between atoms: _137  and  _140
REMARK   50  A    between atoms: _140  and  _141
REMARK   51  A    between atoms: _141  and  _142
REMARK   52  A    between atoms: _142  and  _143
REMARK   53  A    between atoms: _152  and  _154
REMARK   54  A    between atoms: _154  and  _155
REMARK   55  A    between atoms: _154  and  _157
REMARK   56  A    between atoms: _157  and  _158
REMARK   57  A    between atoms: _161  and  _163
REMARK   58  A    between atoms: _163  and  _164
REMARK   59  A    between atoms: _163  and  _166
REMARK   60  A    between atoms: _166  and  _167
REMARK   61  A    between atoms: _170  and  _172
REMARK   62  A    between atoms: _172  and  _173
REMARK   63  A    between atoms: _172  and  _175
REMARK   64  A    between atoms: _175  and  _176
REMARK   65  A    between atoms: _181  and  _182
REMARK   66  A    between atoms: _184  and  _186
REMARK   67  A    between atoms: _186  and  _187
REMARK   68  A    between atoms: _186  and  _189
REMARK   69  A    between atoms: _189  and  _190
REMARK   70  A    between atoms: _195  and  _196
REMARK   71  A    between atoms: _198  and  _200
REMARK   72  A    between atoms: _200  and  _201
REMARK   73  A    between atoms: _200  and  _203
REMARK   74  A    between atoms: _203  and  _204
REMARK   75  A    between atoms: _209  and  _211
REMARK   76  A    between atoms: _211  and  _212
REMARK   77  A    between atoms: _214  and  _216
REMARK   78  A    between atoms: _216  and  _217
REMARK   79  A    between atoms: _216  and  _219
REMARK   80  A    between atoms: _219  and  _220
REMARK   81  A    between atoms: _223  and  _225
REMARK   82  A    between atoms: _225  and  _226
REMARK   83  A    between atoms: _225  and  _228
REMARK   84  A    between atoms: _228  and  _229
REMARK   85  A    between atoms: _232  and  _234
REMARK   86  A    between atoms: _234  and  _235
REMARK   87  A    between atoms: _234  and  _237
REMARK   88  A    between atoms: _237  and  _238
REMARK   89  A    between atoms: _238  and  _239
REMARK   90  A    between atoms: _239  and  _240
REMARK   91  A    between atoms: _249  and  _251
REMARK   92  A    between atoms: _251  and  _252
REMARK   93  A    between atoms: _251  and  _254
REMARK   94  A    between atoms: _254  and  _255
REMARK   95  A    between atoms: _258  and  _260
REMARK   96  A    between atoms: _260  and  _261
REMARK   97  A    between atoms: _260  and  _263
REMARK   98  A    between atoms: _263  and  _264
REMARK   99  A    between atoms: _267  and  _269
REMARK  100  A    between atoms: _269  and  _270
REMARK  101  A    between atoms: _269  and  _272
REMARK  102  A    between atoms: _272  and  _273
REMARK  103  A    between atoms: _273  and  _274
REMARK  104  A    between atoms: _278  and  _279
REMARK  105  A    between atoms: _284  and  _286
REMARK  106  A    between atoms: _286  and  _287
REMARK  107  A    between atoms: _286  and  _289
REMARK  108  A    between atoms: _289  and  _290
REMARK  109  A    between atoms: _293  and  _295
REMARK  110  A    between atoms: _295  and  _296
REMARK  111  A    between atoms: _295  and  _298
REMARK  112  A    between atoms: _298  and  _299
REMARK  113  A    between atoms: _305  and  _307
REMARK  114  A    between atoms: _307  and  _308
REMARK  115  A    between atoms: _307  and  _310
REMARK  116  A    between atoms: _310  and  _311
REMARK  117  A    between atoms: _316  and  _318
REMARK  118  A    between atoms: _318  and  _319
REMARK  119  A    between atoms: _318  and  _321
REMARK  120  A    between atoms: _321  and  _322
REMARK  121  A    between atoms: _326  and  FE_441
REMARK  122  A    between atoms: _327  and  _329
REMARK  123  A    between atoms: _329  and  _330
REMARK  124  A    between atoms: _329  and  _332
REMARK  125  A    between atoms: _332  and  _333
REMARK  126  A    between atoms: _333  and  _334
REMARK  127  A    between atoms: _337  and  _339
REMARK  128  A    between atoms: _339  and  _340
REMARK  129  A    between atoms: _339  and  _342
REMARK  130  A    between atoms: _345  and  _347
REMARK  131  A    between atoms: _347  and  _348
REMARK  132  A    between atoms: _347  and  _350
REMARK  133  A    between atoms: _350  and  _351
REMARK  134  A    between atoms: _351  and  _352
REMARK  135  A    between atoms: _357  and  _359
REMARK  136  A    between atoms: _359  and  _360
REMARK  137  A    between atoms: _359  and  _362
REMARK  138  A    between atoms: _362  and  _363
REMARK  139  A    between atoms: _363  and  _364
REMARK  140  A    between atoms: _364  and  _365
REMARK  141  A    between atoms: _374  and  _376
REMARK  142  A    between atoms: _376  and  _377
REMARK  143  A    between atoms: _376  and  _379
REMARK  144  A    between atoms: _379  and  _380
REMARK  145  A    between atoms: _385  and  _386
REMARK  146  A    between atoms: _388  and  _390
REMARK  147  A    between atoms: _390  and  _391
REMARK  148  A    between atoms: _394  and  _396
REMARK  149  A    between atoms: _396  and  _397
REMARK  150  A    between atoms: _396  and  _399
REMARK  151  A    between atoms: _399  and  _400
REMARK  152  A    between atoms: _403  and  _405
REMARK  153  A    between atoms: _405  and  _406
REMARK  154  A    between atoms: _405  and  _408
REMARK  155  A    between atoms: _408  and  _409
REMARK  156  A    between atoms: _412  and  _414
REMARK  157  A    between atoms: _414  and  _415
REMARK  158  A    between atoms: _414  and  _417
REMARK  159  A    between atoms: _417  and  _418
REMARK  160  A    between atoms: _428  and  _430
REMARK  161  A    between atoms: _430  and  _431
REMARK  162  A    between atoms: _430  and  _433
REMARK  163  A    between atoms: _433  and  _434
REMARK  164  A    between atoms: _434  and  _435
REMARK  165  A    between atoms: _435  and  _436
REMARK  166  A    between atoms: _436  and  _437
REMARK                            x       y       z     vdW  Elec       q    Type
REMARK                         _______ _______ _______ _____ _____    ______ ____
ROOT
ATOM      1  O   HOH     1      16.737  24.229  -2.855  0.00  0.00    +0.000 OA
ENDROOT
TORSDOF 0
REMARK  Name = ../refined-set-2016/3ouj/3ouj_pocket.pdb
REMARK  166 active torsions:
REMARK  status: ('A' for Active; 'I' for Inactive)
REMARK    1  A    between atoms: _1  and  _3
REMARK    2  A    between atoms: _3  and  _4
REMARK    3  A    between atoms: _3  and  _6
REMARK    4  A    between atoms: _6  and  _7
REMARK    5  A    between atoms: _9  and  _11
REMARK    6  A    between atoms: _11  and  _12
REMARK    7  A    between atoms: _11  and  _14
REMARK    8  A    between atoms: _14  and  _15
REMARK    9  A    between atoms: _15  and  _16
REMARK   10  A    between atoms: _16  and  _17
REMARK   11  A    between atoms: _26  and  _28
REMARK   12  A    between atoms: _28  and  _29
REMARK   13  A    between atoms: _28  and  _31
REMARK   14  A    between atoms: _31  and  _32
REMARK   15  A    between atoms: _35  and  _37
REMARK   16  A    between atoms: _37  and  _38
REMARK   17  A    between atoms: _37  and  _40
REMARK   18  A    between atoms: _40  and  _41
REMARK   19  A    between atoms: _44  and  _46
REMARK   20  A    between atoms: _46  and  _47
REMARK   21  A    between atoms: _46  and  _49
REMARK   22  A    between atoms: _49  and  _50
REMARK   23  A    between atoms: _50  and  _51
REMARK   24  A    between atoms: _53  and  _55
REMARK   25  A    between atoms: _55  and  _56
REMARK   26  A    between atoms: _59  and  _61
REMARK   27  A    between atoms: _61  and  _62
REMARK   28  A    between atoms: _61  and  _64
REMARK   29  A    between atoms: _66  and  _68
REMARK   30  A    between atoms: _68  and  _69
REMARK   31  A    between atoms: _68  and  _71
REMARK   32  A    between atoms: _71  and  _72
REMARK   33  A    between atoms: _77  and  _78
REMARK   34  A    between atoms: _80  and  _82
REMARK   35  A    between atoms: _82  and  _83
REMARK   36  A    between atoms: _85  and  _87
REMARK   37  A    between atoms: _87  and  _88
REMARK   38  A    between atoms: _87  and  _90
REMARK   39  A    between atoms: _90  and  _91
REMARK   40  A    between atoms: _96  and  _97
REMARK   41  A    between atoms: _99  and  _101
REMARK   42  A    between atoms: _101  and  _102
REMARK   43  A    between atoms: _101  and  _104
REMARK   44  A    between atoms: _107  and  _109
REMARK   45  A    between atoms: _120  and  _123
REMARK   46  A    between atoms: _128  and  _129
REMARK   47  A    between atoms: _135  and  _137
REMARK   48  A    between atoms: _137  and  _138
REMARK   49  A    between atoms: _137  and  _140
REMARK   50  A    between atoms: _140  and  _141
REMARK   51  A    between atoms: _141  and  _142
REMARK   52  A    between atoms: _142  and  _143
REMARK   53  A    between atoms: _152  and  _154
REMARK   54  A    between atoms: _154  and  _155
REMARK   55  A    between atoms: _154  and  _157
REMARK   56  A    between atoms: _157  and  _158
REMARK   57  A    between atoms: _161  and  _163
REMARK   58  A    between atoms: _163  and  _164
REMARK   59  A    between atoms: _163  and  _166
REMARK   60  A    between atoms: _166  and  _167
REMARK   61  A    between atoms: _170  and  _172
REMARK   62  A    between atoms: _172  and  _173
REMARK   63  A    between atoms: _172  and  _175
REMARK   64  A    between atoms: _175  and  _176
REMARK   65  A    between atoms: _181  and  _182
REMARK   66  A    between atoms: _184  and  _186
REMARK   67  A    between atoms: _186  and  _187
REMARK   68  A    between atoms: _186  and  _189
REMARK   69  A    between atoms: _189  and  _190
REMARK   70  A    between atoms: _195  and  _196
REMARK   71  A    between atoms: _198  and  _200
REMARK   72  A    between atoms: _200  and  _201
REMARK   73  A    between atoms: _200  and  _203
REMARK   74  A    between atoms: _203  and  _204
REMARK   75  A    between atoms: _209  and  _211
REMARK   76  A    between atoms: _211  and  _212
REMARK   77  A    between atoms: _214  and  _216
REMARK   78  A    between atoms: _216  and  _217
REMARK   79  A    between atoms: _216  and  _219
REMARK   80  A    between atoms: _219  and  _220
REMARK   81  A    between atoms: _223  and  _225
REMARK   82  A    between atoms: _225  and  _226
REMARK   83  A    between atoms: _225  and  _228
REMARK   84  A    between atoms: _228  and  _229
REMARK   85  A    between atoms: _232  and  _234
REMARK   86  A    between atoms: _234  and  _235
REMARK   87  A    between atoms: _234  and  _237
REMARK   88  A    between atoms: _237  and  _238
REMARK   89  A    between atoms: _238  and  _239
REMARK   90  A    between atoms: _239  and  _240
REMARK   91  A    between atoms: _249  and  _251
REMARK   92  A    between atoms: _251  and  _252
REMARK   93  A    between atoms: _251  and  _254
REMARK   94  A    between atoms: _254  and  _255
REMARK   95  A    between atoms: _258  and  _260
REMARK   96  A    between atoms: _260  and  _261
REMARK   97  A    between atoms: _260  and  _263
REMARK   98  A    between atoms: _263  and  _264
REMARK   99  A    between atoms: _267  and  _269
REMARK  100  A    between atoms: _269  and  _270
REMARK  101  A    between atoms: _269  and  _272
REMARK  102  A    between atoms: _272  and  _273
REMARK  103  A    between atoms: _273  and  _274
REMARK  104  A    between atoms: _278  and  _279
REMARK  105  A    between atoms: _284  and  _286
REMARK  106  A    between atoms: _286  and  _287
REMARK  107  A    between atoms: _286  and  _289
REMARK  108  A    between atoms: _289  and  _290
REMARK  109  A    between atoms: _293  and  _295
REMARK  110  A    between atoms: _295  and  _296
REMARK  111  A    between atoms: _295  and  _298
REMARK  112  A    between atoms: _298  and  _299
REMARK  113  A    between atoms: _305  and  _307
REMARK  114  A    between atoms: _307  and  _308
REMARK  115  A    between atoms: _307  and  _310
REMARK  116  A    between atoms: _310  and  _311
REMARK  117  A    between atoms: _316  and  _318
REMARK  118  A    between atoms: _318  and  _319
REMARK  119  A    between atoms: _318  and  _321
REMARK  120  A    between atoms: _321  and  _322
REMARK  121  A    between atoms: _326  and  FE_441
REMARK  122  A    between atoms: _327  and  _329
REMARK  123  A    between atoms: _329  and  _330
REMARK  124  A    between atoms: _329  and  _332
REMARK  125  A    between atoms: _332  and  _333
REMARK  126  A    between atoms: _333  and  _334
REMARK  127  A    between atoms: _337  and  _339
REMARK  128  A    between atoms: _339  and  _340
REMARK  129  A    between atoms: _339  and  _342
REMARK  130  A    between atoms: _345  and  _347
REMARK  131  A    between atoms: _347  and  _348
REMARK  132  A    between atoms: _347  and  _350
REMARK  133  A    between atoms: _350  and  _351
REMARK  134  A    between atoms: _351  and  _352
REMARK  135  A    between atoms: _357  and  _359
REMARK  136  A    between atoms: _359  and  _360
REMARK  137  A    between atoms: _359  and  _362
REMARK  138  A    between atoms: _362  and  _363
REMARK  139  A    between atoms: _363  and  _364
REMARK  140  A    between atoms: _364  and  _365
REMARK  141  A    between atoms: _374  and  _376
REMARK  142  A    between atoms: _376  and  _377
REMARK  143  A    between atoms: _376  and  _379
REMARK  144  A    between atoms: _379  and  _380
REMARK  145  A    between atoms: _385  and  _386
REMARK  146  A    between atoms: _388  and  _390
REMARK  147  A    between atoms: _390  and  _391
REMARK  148  A    between atoms: _394  and  _396
REMARK  149  A    between atoms: _396  and  _397
REMARK  150  A    between atoms: _396  and  _399
REMARK  151  A    between atoms: _399  and  _400
REMARK  152  A    between atoms: _403  and  _405
REMARK  153  A    between atoms: _405  and  _406
REMARK  154  A    between atoms: _405  and  _408
REMARK  155  A    between atoms: _408  and  _409
REMARK  156  A    between atoms: _412  and  _414
REMARK  157  A    between atoms: _414  and  _415
REMARK  158  A    between atoms: _414  and  _417
REMARK  159  A    between atoms: _417  and  _418
REMARK  160  A    between atoms: _428  and  _430
REMARK  161  A    between atoms: _430  and  _431
REMARK  162  A    between atoms: _430  and  _433
REMARK  163  A    between atoms: _433  and  _434
REMARK  164  A    between atoms: _434  and  _435
REMARK  165  A    between atoms: _435  and  _436
REMARK  166  A    between atoms: _436  and  _437
REMARK                            x       y       z     vdW  Elec       q    Type
REMARK                         _______ _______ _______ _____ _____    ______ ____
ROOT
ATOM      1  O   HOH     1      13.921  22.271  -0.082  0.00  0.00    +0.000 OA
ENDROOT
TORSDOF 0
REMARK  Name = ../refined-set-2016/3ouj/3ouj_pocket.pdb
REMARK  166 active torsions:
REMARK  status: ('A' for Active; 'I' for Inactive)
REMARK    1  A    between atoms: _1  and  _3
REMARK    2  A    between atoms: _3  and  _4
REMARK    3  A    between atoms: _3  and  _6
REMARK    4  A    between atoms: _6  and  _7
REMARK    5  A    between atoms: _9  and  _11
REMARK    6  A    between atoms: _11  and  _12
REMARK    7  A    between atoms: _11  and  _14
REMARK    8  A    between atoms: _14  and  _15
REMARK    9  A    between atoms: _15  and  _16
REMARK   10  A    between atoms: _16  and  _17
REMARK   11  A    between atoms: _26  and  _28
REMARK   12  A    between atoms: _28  and  _29
REMARK   13  A    between atoms: _28  and  _31
REMARK   14  A    between atoms: _31  and  _32
REMARK   15  A    between atoms: _35  and  _37
REMARK   16  A    between atoms: _37  and  _38
REMARK   17  A    between atoms: _37  and  _40
REMARK   18  A    between atoms: _40  and  _41
REMARK   19  A    between atoms: _44  and  _46
REMARK   20  A    between atoms: _46  and  _47
REMARK   21  A    between atoms: _46  and  _49
REMARK   22  A    between atoms: _49  and  _50
REMARK   23  A    between atoms: _50  and  _51
REMARK   24  A    between atoms: _53  and  _55
REMARK   25  A    between atoms: _55  and  _56
REMARK   26  A    between atoms: _59  and  _61
REMARK   27  A    between atoms: _61  and  _62
REMARK   28  A    between atoms: _61  and  _64
REMARK   29  A    between atoms: _66  and  _68
REMARK   30  A    between atoms: _68  and  _69
REMARK   31  A    between atoms: _68  and  _71
REMARK   32  A    between atoms: _71  and  _72
REMARK   33  A    between atoms: _77  and  _78
REMARK   34  A    between atoms: _80  and  _82
REMARK   35  A    between atoms: _82  and  _83
REMARK   36  A    between atoms: _85  and  _87
REMARK   37  A    between atoms: _87  and  _88
REMARK   38  A    between atoms: _87  and  _90
REMARK   39  A    between atoms: _90  and  _91
REMARK   40  A    between atoms: _96  and  _97
REMARK   41  A    between atoms: _99  and  _101
REMARK   42  A    between atoms: _101  and  _102
REMARK   43  A    between atoms: _101  and  _104
REMARK   44  A    between atoms: _107  and  _109
REMARK   45  A    between atoms: _120  and  _123
REMARK   46  A    between atoms: _128  and  _129
REMARK   47  A    between atoms: _135  and  _137
REMARK   48  A    between atoms: _137  and  _138
REMARK   49  A    between atoms: _137  and  _140
REMARK   50  A    between atoms: _140  and  _141
REMARK   51  A    between atoms: _141  and  _142
REMARK   52  A    between atoms: _142  and  _143
REMARK   53  A    between atoms: _152  and  _154
REMARK   54  A    between atoms: _154  and  _155
REMARK   55  A    between atoms: _154  and  _157
REMARK   56  A    between atoms: _157  and  _158
REMARK   57  A    between atoms: _161  and  _163
REMARK   58  A    between atoms: _163  and  _164
REMARK   59  A    between atoms: _163  and  _166
REMARK   60  A    between atoms: _166  and  _167
REMARK   61  A    between atoms: _170  and  _172
REMARK   62  A    between atoms: _172  and  _173
REMARK   63  A    between atoms: _172  and  _175
REMARK   64  A    between atoms: _175  and  _176
REMARK   65  A    between atoms: _181  and  _182
REMARK   66  A    between atoms: _184  and  _186
REMARK   67  A    between atoms: _186  and  _187
REMARK   68  A    between atoms: _186  and  _189
REMARK   69  A    between atoms: _189  and  _190
REMARK   70  A    between atoms: _195  and  _196
REMARK   71  A    between atoms: _198  and  _200
REMARK   72  A    between atoms: _200  and  _201
REMARK   73  A    between atoms: _200  and  _203
REMARK   74  A    between atoms: _203  and  _204
REMARK   75  A    between atoms: _209  and  _211
REMARK   76  A    between atoms: _211  and  _212
REMARK   77  A    between atoms: _214  and  _216
REMARK   78  A    between atoms: _216  and  _217
REMARK   79  A    between atoms: _216  and  _219
REMARK   80  A    between atoms: _219  and  _220
REMARK   81  A    between atoms: _223  and  _225
REMARK   82  A    between atoms: _225  and  _226
REMARK   83  A    between atoms: _225  and  _228
REMARK   84  A    between atoms: _228  and  _229
REMARK   85  A    between atoms: _232  and  _234
REMARK   86  A    between atoms: _234  and  _235
REMARK   87  A    between atoms: _234  and  _237
REMARK   88  A    between atoms: _237  and  _238
REMARK   89  A    between atoms: _238  and  _239
REMARK   90  A    between atoms: _239  and  _240
REMARK   91  A    between atoms: _249  and  _251
REMARK   92  A    between atoms: _251  and  _252
REMARK   93  A    between atoms: _251  and  _254
REMARK   94  A    between atoms: _254  and  _255
REMARK   95  A    between atoms: _258  and  _260
REMARK   96  A    between atoms: _260  and  _261
REMARK   97  A    between atoms: _260  and  _263
REMARK   98  A    between atoms: _263  and  _264
REMARK   99  A    between atoms: _267  and  _269
REMARK  100  A    between atoms: _269  and  _270
REMARK  101  A    between atoms: _269  and  _272
REMARK  102  A    between atoms: _272  and  _273
REMARK  103  A    between atoms: _273  and  _274
REMARK  104  A    between atoms: _278  and  _279
REMARK  105  A    between atoms: _284  and  _286
REMARK  106  A    between atoms: _286  and  _287
REMARK  107  A    between atoms: _286  and  _289
REMARK  108  A    between atoms: _289  and  _290
REMARK  109  A    between atoms: _293  and  _295
REMARK  110  A    between atoms: _295  and  _296
REMARK  111  A    between atoms: _295  and  _298
REMARK  112  A    between atoms: _298  and  _299
REMARK  113  A    between atoms: _305  and  _307
REMARK  114  A    between atoms: _307  and  _308
REMARK  115  A    between atoms: _307  and  _310
REMARK  116  A    between atoms: _310  and  _311
REMARK  117  A    between atoms: _316  and  _318
REMARK  118  A    between atoms: _318  and  _319
REMARK  119  A    between atoms: _318  and  _321
REMARK  120  A    between atoms: _321  and  _322
REMARK  121  A    between atoms: _326  and  FE_441
REMARK  122  A    between atoms: _327  and  _329
REMARK  123  A    between atoms: _329  and  _330
REMARK  124  A    between atoms: _329  and  _332
REMARK  125  A    between atoms: _332  and  _333
REMARK  126  A    between atoms: _333  and  _334
REMARK  127  A    between atoms: _337  and  _339
REMARK  128  A    between atoms: _339  and  _340
REMARK  129  A    between atoms: _339  and  _342
REMARK  130  A    between atoms: _345  and  _347
REMARK  131  A    between atoms: _347  and  _348
REMARK  132  A    between atoms: _347  and  _350
REMARK  133  A    between atoms: _350  and  _351
REMARK  134  A    between atoms: _351  and  _352
REMARK  135  A    between atoms: _357  and  _359
REMARK  136  A    between atoms: _359  and  _360
REMARK  137  A    between atoms: _359  and  _362
REMARK  138  A    between atoms: _362  and  _363
REMARK  139  A    between atoms: _363  and  _364
REMARK  140  A    between atoms: _364  and  _365
REMARK  141  A    between atoms: _374  and  _376
REMARK  142  A    between atoms: _376  and  _377
REMARK  143  A    between atoms: _376  and  _379
REMARK  144  A    between atoms: _379  and  _380
REMARK  145  A    between atoms: _385  and  _386
REMARK  146  A    between atoms: _388  and  _390
REMARK  147  A    between atoms: _390  and  _391
REMARK  148  A    between atoms: _394  and  _396
REMARK  149  A    between atoms: _396  and  _397
REMARK  150  A    between atoms: _396  and  _399
REMARK  151  A    between atoms: _399  and  _400
REMARK  152  A    between atoms: _403  and  _405
REMARK  153  A    between atoms: _405  and  _406
REMARK  154  A    between atoms: _405  and  _408
REMARK  155  A    between atoms: _408  and  _409
REMARK  156  A    between atoms: _412  and  _414
REMARK  157  A    between atoms: _414  and  _415
REMARK  158  A    between atoms: _414  and  _417
REMARK  159  A    between atoms: _417  and  _418
REMARK  160  A    between atoms: _428  and  _430
REMARK  161  A    between atoms: _430  and  _431
REMARK  162  A    between atoms: _430  and  _433
REMARK  163  A    between atoms: _433  and  _434
REMARK  164  A    between atoms: _434  and  _435
REMARK  165  A    between atoms: _435  and  _436
REMARK  166  A    between atoms: _436  and  _437
REMARK                            x       y       z     vdW  Elec       q    Type
REMARK                         _______ _______ _______ _____ _____    ______ ____
ROOT
ATOM      1  O   HOH     1      17.064  25.999   1.982  0.00  0.00    +0.000 OA
ENDROOT
TORSDOF 0
REMARK  Name = ../refined-set-2016/3ouj/3ouj_pocket.pdb
REMARK  166 active torsions:
REMARK  status: ('A' for Active; 'I' for Inactive)
REMARK    1  A    between atoms: _1  and  _3
REMARK    2  A    between atoms: _3  and  _4
REMARK    3  A    between atoms: _3  and  _6
REMARK    4  A    between atoms: _6  and  _7
REMARK    5  A    between atoms: _9  and  _11
REMARK    6  A    between atoms: _11  and  _12
REMARK    7  A    between atoms: _11  and  _14
REMARK    8  A    between atoms: _14  and  _15
REMARK    9  A    between atoms: _15  and  _16
REMARK   10  A    between atoms: _16  and  _17
REMARK   11  A    between atoms: _26  and  _28
REMARK   12  A    between atoms: _28  and  _29
REMARK   13  A    between atoms: _28  and  _31
REMARK   14  A    between atoms: _31  and  _32
REMARK   15  A    between atoms: _35  and  _37
REMARK   16  A    between atoms: _37  and  _38
REMARK   17  A    between atoms: _37  and  _40
REMARK   18  A    between atoms: _40  and  _41
REMARK   19  A    between atoms: _44  and  _46
REMARK   20  A    between atoms: _46  and  _47
REMARK   21  A    between atoms: _46  and  _49
REMARK   22  A    between atoms: _49  and  _50
REMARK   23  A    between atoms: _50  and  _51
REMARK   24  A    between atoms: _53  and  _55
REMARK   25  A    between atoms: _55  and  _56
REMARK   26  A    between atoms: _59  and  _61
REMARK   27  A    between atoms: _61  and  _62
REMARK   28  A    between atoms: _61  and  _64
REMARK   29  A    between atoms: _66  and  _68
REMARK   30  A    between atoms: _68  and  _69
REMARK   31  A    between atoms: _68  and  _71
REMARK   32  A    between atoms: _71  and  _72
REMARK   33  A    between atoms: _77  and  _78
REMARK   34  A    between atoms: _80  and  _82
REMARK   35  A    between atoms: _82  and  _83
REMARK   36  A    between atoms: _85  and  _87
REMARK   37  A    between atoms: _87  and  _88
REMARK   38  A    between atoms: _87  and  _90
REMARK   39  A    between atoms: _90  and  _91
REMARK   40  A    between atoms: _96  and  _97
REMARK   41  A    between atoms: _99  and  _101
REMARK   42  A    between atoms: _101  and  _102
REMARK   43  A    between atoms: _101  and  _104
REMARK   44  A    between atoms: _107  and  _109
REMARK   45  A    between atoms: _120  and  _123
REMARK   46  A    between atoms: _128  and  _129
REMARK   47  A    between atoms: _135  and  _137
REMARK   48  A    between atoms: _137  and  _138
REMARK   49  A    between atoms: _137  and  _140
REMARK   50  A    between atoms: _140  and  _141
REMARK   51  A    between atoms: _141  and  _142
REMARK   52  A    between atoms: _142  and  _143
REMARK   53  A    between atoms: _152  and  _154
REMARK   54  A    between atoms: _154  and  _155
REMARK   55  A    between atoms: _154  and  _157
REMARK   56  A    between atoms: _157  and  _158
REMARK   57  A    between atoms: _161  and  _163
REMARK   58  A    between atoms: _163  and  _164
REMARK   59  A    between atoms: _163  and  _166
REMARK   60  A    between atoms: _166  and  _167
REMARK   61  A    between atoms: _170  and  _172
REMARK   62  A    between atoms: _172  and  _173
REMARK   63  A    between atoms: _172  and  _175
REMARK   64  A    between atoms: _175  and  _176
REMARK   65  A    between atoms: _181  and  _182
REMARK   66  A    between atoms: _184  and  _186
REMARK   67  A    between atoms: _186  and  _187
REMARK   68  A    between atoms: _186  and  _189
REMARK   69  A    between atoms: _189  and  _190
REMARK   70  A    between atoms: _195  and  _196
REMARK   71  A    between atoms: _198  and  _200
REMARK   72  A    between atoms: _200  and  _201
REMARK   73  A    between atoms: _200  and  _203
REMARK   74  A    between atoms: _203  and  _204
REMARK   75  A    between atoms: _209  and  _211
REMARK   76  A    between atoms: _211  and  _212
REMARK   77  A    between atoms: _214  and  _216
REMARK   78  A    between atoms: _216  and  _217
REMARK   79  A    between atoms: _216  and  _219
REMARK   80  A    between atoms: _219  and  _220
REMARK   81  A    between atoms: _223  and  _225
REMARK   82  A    between atoms: _225  and  _226
REMARK   83  A    between atoms: _225  and  _228
REMARK   84  A    between atoms: _228  and  _229
REMARK   85  A    between atoms: _232  and  _234
REMARK   86  A    between atoms: _234  and  _235
REMARK   87  A    between atoms: _234  and  _237
REMARK   88  A    between atoms: _237  and  _238
REMARK   89  A    between atoms: _238  and  _239
REMARK   90  A    between atoms: _239  and  _240
REMARK   91  A    between atoms: _249  and  _251
REMARK   92  A    between atoms: _251  and  _252
REMARK   93  A    between atoms: _251  and  _254
REMARK   94  A    between atoms: _254  and  _255
REMARK   95  A    between atoms: _258  and  _260
REMARK   96  A    between atoms: _260  and  _261
REMARK   97  A    between atoms: _260  and  _263
REMARK   98  A    between atoms: _263  and  _264
REMARK   99  A    between atoms: _267  and  _269
REMARK  100  A    between atoms: _269  and  _270
REMARK  101  A    between atoms: _269  and  _272
REMARK  102  A    between atoms: _272  and  _273
REMARK  103  A    between atoms: _273  and  _274
REMARK  104  A    between atoms: _278  and  _279
REMARK  105  A    between atoms: _284  and  _286
REMARK  106  A    between atoms: _286  and  _287
REMARK  107  A    between atoms: _286  and  _289
REMARK  108  A    between atoms: _289  and  _290
REMARK  109  A    between atoms: _293  and  _295
REMARK  110  A    between atoms: _295  and  _296
REMARK  111  A    between atoms: _295  and  _298
REMARK  112  A    between atoms: _298  and  _299
REMARK  113  A    between atoms: _305  and  _307
REMARK  114  A    between atoms: _307  and  _308
REMARK  115  A    between atoms: _307  and  _310
REMARK  116  A    between atoms: _310  and  _311
REMARK  117  A    between atoms: _316  and  _318
REMARK  118  A    between atoms: _318  and  _319
REMARK  119  A    between atoms: _318  and  _321
REMARK  120  A    between atoms: _321  and  _322
REMARK  121  A    between atoms: _326  and  FE_441
REMARK  122  A    between atoms: _327  and  _329
REMARK  123  A    between atoms: _329  and  _330
REMARK  124  A    between atoms: _329  and  _332
REMARK  125  A    between atoms: _332  and  _333
REMARK  126  A    between atoms: _333  and  _334
REMARK  127  A    between atoms: _337  and  _339
REMARK  128  A    between atoms: _339  and  _340
REMARK  129  A    between atoms: _339  and  _342
REMARK  130  A    between atoms: _345  and  _347
REMARK  131  A    between atoms: _347  and  _348
REMARK  132  A    between atoms: _347  and  _350
REMARK  133  A    between atoms: _350  and  _351
REMARK  134  A    between atoms: _351  and  _352
REMARK  135  A    between atoms: _357  and  _359
REMARK  136  A    between atoms: _359  and  _360
REMARK  137  A    between atoms: _359  and  _362
REMARK  138  A    between atoms: _362  and  _363
REMARK  139  A    between atoms: _363  and  _364
REMARK  140  A    between atoms: _364  and  _365
REMARK  141  A    between atoms: _374  and  _376
REMARK  142  A    between atoms: _376  and  _377
REMARK  143  A    between atoms: _376  and  _379
REMARK  144  A    between atoms: _379  and  _380
REMARK  145  A    between atoms: _385  and  _386
REMARK  146  A    between atoms: _388  and  _390
REMARK  147  A    between atoms: _390  and  _391
REMARK  148  A    between atoms: _394  and  _396
REMARK  149  A    between atoms: _396  and  _397
REMARK  150  A    between atoms: _396  and  _399
REMARK  151  A    between atoms: _399  and  _400
REMARK  152  A    between atoms: _403  and  _405
REMARK  153  A    between atoms: _405  and  _406
REMARK  154  A    between atoms: _405  and  _408
REMARK  155  A    between atoms: _408  and  _409
REMARK  156  A    between atoms: _412  and  _414
REMARK  157  A    between atoms: _414  and  _415
REMARK  158  A    between atoms: _414  and  _417
REMARK  159  A    between atoms: _417  and  _418
REMARK  160  A    between atoms: _428  and  _430
REMARK  161  A    between atoms: _430  and  _431
REMARK  162  A    between atoms: _430  and  _433
REMARK  163  A    between atoms: _433  and  _434
REMARK  164  A    between atoms: _434  and  _435
REMARK  165  A    between atoms: _435  and  _436
REMARK  166  A    between atoms: _436  and  _437
REMARK                            x       y       z     vdW  Elec       q    Type
REMARK                         _______ _______ _______ _____ _____    ______ ____
ROOT
ATOM      1  O   HOH     1      15.375  24.786  -0.516  0.00  0.00    +0.000 OA
ENDROOT
TORSDOF 0
REMARK  Name = ../refined-set-2016/3ouj/3ouj_pocket.pdb
REMARK  166 active torsions:
REMARK  status: ('A' for Active; 'I' for Inactive)
REMARK    1  A    between atoms: _1  and  _3
REMARK    2  A    between atoms: _3  and  _4
REMARK    3  A    between atoms: _3  and  _6
REMARK    4  A    between atoms: _6  and  _7
REMARK    5  A    between atoms: _9  and  _11
REMARK    6  A    between atoms: _11  and  _12
REMARK    7  A    between atoms: _11  and  _14
REMARK    8  A    between atoms: _14  and  _15
REMARK    9  A    between atoms: _15  and  _16
REMARK   10  A    between atoms: _16  and  _17
REMARK   11  A    between atoms: _26  and  _28
REMARK   12  A    between atoms: _28  and  _29
REMARK   13  A    between atoms: _28  and  _31
REMARK   14  A    between atoms: _31  and  _32
REMARK   15  A    between atoms: _35  and  _37
REMARK   16  A    between atoms: _37  and  _38
REMARK   17  A    between atoms: _37  and  _40
REMARK   18  A    between atoms: _40  and  _41
REMARK   19  A    between atoms: _44  and  _46
REMARK   20  A    between atoms: _46  and  _47
REMARK   21  A    between atoms: _46  and  _49
REMARK   22  A    between atoms: _49  and  _50
REMARK   23  A    between atoms: _50  and  _51
REMARK   24  A    between atoms: _53  and  _55
REMARK   25  A    between atoms: _55  and  _56
REMARK   26  A    between atoms: _59  and  _61
REMARK   27  A    between atoms: _61  and  _62
REMARK   28  A    between atoms: _61  and  _64
REMARK   29  A    between atoms: _66  and  _68
REMARK   30  A    between atoms: _68  and  _69
REMARK   31  A    between atoms: _68  and  _71
REMARK   32  A    between atoms: _71  and  _72
REMARK   33  A    between atoms: _77  and  _78
REMARK   34  A    between atoms: _80  and  _82
REMARK   35  A    between atoms: _82  and  _83
REMARK   36  A    between atoms: _85  and  _87
REMARK   37  A    between atoms: _87  and  _88
REMARK   38  A    between atoms: _87  and  _90
REMARK   39  A    between atoms: _90  and  _91
REMARK   40  A    between atoms: _96  and  _97
REMARK   41  A    between atoms: _99  and  _101
REMARK   42  A    between atoms: _101  and  _102
REMARK   43  A    between atoms: _101  and  _104
REMARK   44  A    between atoms: _107  and  _109
REMARK   45  A    between atoms: _120  and  _123
REMARK   46  A    between atoms: _128  and  _129
REMARK   47  A    between atoms: _135  and  _137
REMARK   48  A    between atoms: _137  and  _138
REMARK   49  A    between atoms: _137  and  _140
REMARK   50  A    between atoms: _140  and  _141
REMARK   51  A    between atoms: _141  and  _142
REMARK   52  A    between atoms: _142  and  _143
REMARK   53  A    between atoms: _152  and  _154
REMARK   54  A    between atoms: _154  and  _155
REMARK   55  A    between atoms: _154  and  _157
REMARK   56  A    between atoms: _157  and  _158
REMARK   57  A    between atoms: _161  and  _163
REMARK   58  A    between atoms: _163  and  _164
REMARK   59  A    between atoms: _163  and  _166
REMARK   60  A    between atoms: _166  and  _167
REMARK   61  A    between atoms: _170  and  _172
REMARK   62  A    between atoms: _172  and  _173
REMARK   63  A    between atoms: _172  and  _175
REMARK   64  A    between atoms: _175  and  _176
REMARK   65  A    between atoms: _181  and  _182
REMARK   66  A    between atoms: _184  and  _186
REMARK   67  A    between atoms: _186  and  _187
REMARK   68  A    between atoms: _186  and  _189
REMARK   69  A    between atoms: _189  and  _190
REMARK   70  A    between atoms: _195  and  _196
REMARK   71  A    between atoms: _198  and  _200
REMARK   72  A    between atoms: _200  and  _201
REMARK   73  A    between atoms: _200  and  _203
REMARK   74  A    between atoms: _203  and  _204
REMARK   75  A    between atoms: _209  and  _211
REMARK   76  A    between atoms: _211  and  _212
REMARK   77  A    between atoms: _214  and  _216
REMARK   78  A    between atoms: _216  and  _217
REMARK   79  A    between atoms: _216  and  _219
REMARK   80  A    between atoms: _219  and  _220
REMARK   81  A    between atoms: _223  and  _225
REMARK   82  A    between atoms: _225  and  _226
REMARK   83  A    between atoms: _225  and  _228
REMARK   84  A    between atoms: _228  and  _229
REMARK   85  A    between atoms: _232  and  _234
REMARK   86  A    between atoms: _234  and  _235
REMARK   87  A    between atoms: _234  and  _237
REMARK   88  A    between atoms: _237  and  _238
REMARK   89  A    between atoms: _238  and  _239
REMARK   90  A    between atoms: _239  and  _240
REMARK   91  A    between atoms: _249  and  _251
REMARK   92  A    between atoms: _251  and  _252
REMARK   93  A    between atoms: _251  and  _254
REMARK   94  A    between atoms: _254  and  _255
REMARK   95  A    between atoms: _258  and  _260
REMARK   96  A    between atoms: _260  and  _261
REMARK   97  A    between atoms: _260  and  _263
REMARK   98  A    between atoms: _263  and  _264
REMARK   99  A    between atoms: _267  and  _269
REMARK  100  A    between atoms: _269  and  _270
REMARK  101  A    between atoms: _269  and  _272
REMARK  102  A    between atoms: _272  and  _273
REMARK  103  A    between atoms: _273  and  _274
REMARK  104  A    between atoms: _278  and  _279
REMARK  105  A    between atoms: _284  and  _286
REMARK  106  A    between atoms: _286  and  _287
REMARK  107  A    between atoms: _286  and  _289
REMARK  108  A    between atoms: _289  and  _290
REMARK  109  A    between atoms: _293  and  _295
REMARK  110  A    between atoms: _295  and  _296
REMARK  111  A    between atoms: _295  and  _298
REMARK  112  A    between atoms: _298  and  _299
REMARK  113  A    between atoms: _305  and  _307
REMARK  114  A    between atoms: _307  and  _308
REMARK  115  A    between atoms: _307  and  _310
REMARK  116  A    between atoms: _310  and  _311
REMARK  117  A    between atoms: _316  and  _318
REMARK  118  A    between atoms: _318  and  _319
REMARK  119  A    between atoms: _318  and  _321
REMARK  120  A    between atoms: _321  and  _322
REMARK  121  A    between atoms: _326  and  FE_441
REMARK  122  A    between atoms: _327  and  _329
REMARK  123  A    between atoms: _329  and  _330
REMARK  124  A    between atoms: _329  and  _332
REMARK  125  A    between atoms: _332  and  _333
REMARK  126  A    between atoms: _333  and  _334
REMARK  127  A    between atoms: _337  and  _339
REMARK  128  A    between atoms: _339  and  _340
REMARK  129  A    between atoms: _339  and  _342
REMARK  130  A    between atoms: _345  and  _347
REMARK  131  A    between atoms: _347  and  _348
REMARK  132  A    between atoms: _347  and  _350
REMARK  133  A    between atoms: _350  and  _351
REMARK  134  A    between atoms: _351  and  _352
REMARK  135  A    between atoms: _357  and  _359
REMARK  136  A    between atoms: _359  and  _360
REMARK  137  A    between atoms: _359  and  _362
REMARK  138  A    between atoms: _362  and  _363
REMARK  139  A    between atoms: _363  and  _364
REMARK  140  A    between atoms: _364  and  _365
REMARK  141  A    between atoms: _374  and  _376
REMARK  142  A    between atoms: _376  and  _377
REMARK  143  A    between atoms: _376  and  _379
REMARK  144  A    between atoms: _379  and  _380
REMARK  145  A    between atoms: _385  and  _386
REMARK  146  A    between atoms: _388  and  _390
REMARK  147  A    between atoms: _390  and  _391
REMARK  148  A    between atoms: _394  and  _396
REMARK  149  A    between atoms: _396  and  _397
REMARK  150  A    between atoms: _396  and  _399
REMARK  151  A    between atoms: _399  and  _400
REMARK  152  A    between atoms: _403  and  _405
REMARK  153  A    between atoms: _405  and  _406
REMARK  154  A    between atoms: _405  and  _408
REMARK  155  A    between atoms: _408  and  _409
REMARK  156  A    between atoms: _412  and  _414
REMARK  157  A    between atoms: _414  and  _415
REMARK  158  A    between atoms: _414  and  _417
REMARK  159  A    between atoms: _417  and  _418
REMARK  160  A    between atoms: _428  and  _430
REMARK  161  A    between atoms: _430  and  _431
REMARK  162  A    between atoms: _430  and  _433
REMARK  163  A    between atoms: _433  and  _434
REMARK  164  A    between atoms: _434  and  _435
REMARK  165  A    between atoms: _435  and  _436
REMARK  166  A    between atoms: _436  and  _437
REMARK                            x       y       z     vdW  Elec       q    Type
REMARK                         _______ _______ _______ _____ _____    ______ ____
ROOT
ATOM      1  O   HOH     1      14.577  22.797  -8.939  0.00  0.00    +0.000 OA
ENDROOT
TORSDOF 0
REMARK  Name = ../refined-set-2016/3ouj/3ouj_pocket.pdb
REMARK  166 active torsions:
REMARK  status: ('A' for Active; 'I' for Inactive)
REMARK    1  A    between atoms: _1  and  _3
REMARK    2  A    between atoms: _3  and  _4
REMARK    3  A    between atoms: _3  and  _6
REMARK    4  A    between atoms: _6  and  _7
REMARK    5  A    between atoms: _9  and  _11
REMARK    6  A    between atoms: _11  and  _12
REMARK    7  A    between atoms: _11  and  _14
REMARK    8  A    between atoms: _14  and  _15
REMARK    9  A    between atoms: _15  and  _16
REMARK   10  A    between atoms: _16  and  _17
REMARK   11  A    between atoms: _26  and  _28
REMARK   12  A    between atoms: _28  and  _29
REMARK   13  A    between atoms: _28  and  _31
REMARK   14  A    between atoms: _31  and  _32
REMARK   15  A    between atoms: _35  and  _37
REMARK   16  A    between atoms: _37  and  _38
REMARK   17  A    between atoms: _37  and  _40
REMARK   18  A    between atoms: _40  and  _41
REMARK   19  A    between atoms: _44  and  _46
REMARK   20  A    between atoms: _46  and  _47
REMARK   21  A    between atoms: _46  and  _49
REMARK   22  A    between atoms: _49  and  _50
REMARK   23  A    between atoms: _50  and  _51
REMARK   24  A    between atoms: _53  and  _55
REMARK   25  A    between atoms: _55  and  _56
REMARK   26  A    between atoms: _59  and  _61
REMARK   27  A    between atoms: _61  and  _62
REMARK   28  A    between atoms: _61  and  _64
REMARK   29  A    between atoms: _66  and  _68
REMARK   30  A    between atoms: _68  and  _69
REMARK   31  A    between atoms: _68  and  _71
REMARK   32  A    between atoms: _71  and  _72
REMARK   33  A    between atoms: _77  and  _78
REMARK   34  A    between atoms: _80  and  _82
REMARK   35  A    between atoms: _82  and  _83
REMARK   36  A    between atoms: _85  and  _87
REMARK   37  A    between atoms: _87  and  _88
REMARK   38  A    between atoms: _87  and  _90
REMARK   39  A    between atoms: _90  and  _91
REMARK   40  A    between atoms: _96  and  _97
REMARK   41  A    between atoms: _99  and  _101
REMARK   42  A    between atoms: _101  and  _102
REMARK   43  A    between atoms: _101  and  _104
REMARK   44  A    between atoms: _107  and  _109
REMARK   45  A    between atoms: _120  and  _123
REMARK   46  A    between atoms: _128  and  _129
REMARK   47  A    between atoms: _135  and  _137
REMARK   48  A    between atoms: _137  and  _138
REMARK   49  A    between atoms: _137  and  _140
REMARK   50  A    between atoms: _140  and  _141
REMARK   51  A    between atoms: _141  and  _142
REMARK   52  A    between atoms: _142  and  _143
REMARK   53  A    between atoms: _152  and  _154
REMARK   54  A    between atoms: _154  and  _155
REMARK   55  A    between atoms: _154  and  _157
REMARK   56  A    between atoms: _157  and  _158
REMARK   57  A    between atoms: _161  and  _163
REMARK   58  A    between atoms: _163  and  _164
REMARK   59  A    between atoms: _163  and  _166
REMARK   60  A    between atoms: _166  and  _167
REMARK   61  A    between atoms: _170  and  _172
REMARK   62  A    between atoms: _172  and  _173
REMARK   63  A    between atoms: _172  and  _175
REMARK   64  A    between atoms: _175  and  _176
REMARK   65  A    between atoms: _181  and  _182
REMARK   66  A    between atoms: _184  and  _186
REMARK   67  A    between atoms: _186  and  _187
REMARK   68  A    between atoms: _186  and  _189
REMARK   69  A    between atoms: _189  and  _190
REMARK   70  A    between atoms: _195  and  _196
REMARK   71  A    between atoms: _198  and  _200
REMARK   72  A    between atoms: _200  and  _201
REMARK   73  A    between atoms: _200  and  _203
REMARK   74  A    between atoms: _203  and  _204
REMARK   75  A    between atoms: _209  and  _211
REMARK   76  A    between atoms: _211  and  _212
REMARK   77  A    between atoms: _214  and  _216
REMARK   78  A    between atoms: _216  and  _217
REMARK   79  A    between atoms: _216  and  _219
REMARK   80  A    between atoms: _219  and  _220
REMARK   81  A    between atoms: _223  and  _225
REMARK   82  A    between atoms: _225  and  _226
REMARK   83  A    between atoms: _225  and  _228
REMARK   84  A    between atoms: _228  and  _229
REMARK   85  A    between atoms: _232  and  _234
REMARK   86  A    between atoms: _234  and  _235
REMARK   87  A    between atoms: _234  and  _237
REMARK   88  A    between atoms: _237  and  _238
REMARK   89  A    between atoms: _238  and  _239
REMARK   90  A    between atoms: _239  and  _240
REMARK   91  A    between atoms: _249  and  _251
REMARK   92  A    between atoms: _251  and  _252
REMARK   93  A    between atoms: _251  and  _254
REMARK   94  A    between atoms: _254  and  _255
REMARK   95  A    between atoms: _258  and  _260
REMARK   96  A    between atoms: _260  and  _261
REMARK   97  A    between atoms: _260  and  _263
REMARK   98  A    between atoms: _263  and  _264
REMARK   99  A    between atoms: _267  and  _269
REMARK  100  A    between atoms: _269  and  _270
REMARK  101  A    between atoms: _269  and  _272
REMARK  102  A    between atoms: _272  and  _273
REMARK  103  A    between atoms: _273  and  _274
REMARK  104  A    between atoms: _278  and  _279
REMARK  105  A    between atoms: _284  and  _286
REMARK  106  A    between atoms: _286  and  _287
REMARK  107  A    between atoms: _286  and  _289
REMARK  108  A    between atoms: _289  and  _290
REMARK  109  A    between atoms: _293  and  _295
REMARK  110  A    between atoms: _295  and  _296
REMARK  111  A    between atoms: _295  and  _298
REMARK  112  A    between atoms: _298  and  _299
REMARK  113  A    between atoms: _305  and  _307
REMARK  114  A    between atoms: _307  and  _308
REMARK  115  A    between atoms: _307  and  _310
REMARK  116  A    between atoms: _310  and  _311
REMARK  117  A    between atoms: _316  and  _318
REMARK  118  A    between atoms: _318  and  _319
REMARK  119  A    between atoms: _318  and  _321
REMARK  120  A    between atoms: _321  and  _322
REMARK  121  A    between atoms: _326  and  FE_441
REMARK  122  A    between atoms: _327  and  _329
REMARK  123  A    between atoms: _329  and  _330
REMARK  124  A    between atoms: _329  and  _332
REMARK  125  A    between atoms: _332  and  _333
REMARK  126  A    between atoms: _333  and  _334
REMARK  127  A    between atoms: _337  and  _339
REMARK  128  A    between atoms: _339  and  _340
REMARK  129  A    between atoms: _339  and  _342
REMARK  130  A    between atoms: _345  and  _347
REMARK  131  A    between atoms: _347  and  _348
REMARK  132  A    between atoms: _347  and  _350
REMARK  133  A    between atoms: _350  and  _351
REMARK  134  A    between atoms: _351  and  _352
REMARK  135  A    between atoms: _357  and  _359
REMARK  136  A    between atoms: _359  and  _360
REMARK  137  A    between atoms: _359  and  _362
REMARK  138  A    between atoms: _362  and  _363
REMARK  139  A    between atoms: _363  and  _364
REMARK  140  A    between atoms: _364  and  _365
REMARK  141  A    between atoms: _374  and  _376
REMARK  142  A    between atoms: _376  and  _377
REMARK  143  A    between atoms: _376  and  _379
REMARK  144  A    between atoms: _379  and  _380
REMARK  145  A    between atoms: _385  and  _386
REMARK  146  A    between atoms: _388  and  _390
REMARK  147  A    between atoms: _390  and  _391
REMARK  148  A    between atoms: _394  and  _396
REMARK  149  A    between atoms: _396  and  _397
REMARK  150  A    between atoms: _396  and  _399
REMARK  151  A    between atoms: _399  and  _400
REMARK  152  A    between atoms: _403  and  _405
REMARK  153  A    between atoms: _405  and  _406
REMARK  154  A    between atoms: _405  and  _408
REMARK  155  A    between atoms: _408  and  _409
REMARK  156  A    between atoms: _412  and  _414
REMARK  157  A    between atoms: _414  and  _415
REMARK  158  A    between atoms: _414  and  _417
REMARK  159  A    between atoms: _417  and  _418
REMARK  160  A    between atoms: _428  and  _430
REMARK  161  A    between atoms: _430  and  _431
REMARK  162  A    between atoms: _430  and  _433
REMARK  163  A    between atoms: _433  and  _434
REMARK  164  A    between atoms: _434  and  _435
REMARK  165  A    between atoms: _435  and  _436
REMARK  166  A    between atoms: _436  and  _437
REMARK                            x       y       z     vdW  Elec       q    Type
REMARK                         _______ _______ _______ _____ _____    ______ ____
ROOT
ATOM      1  O   HOH     1      12.007  23.873  -3.682  0.00  0.00    +0.000 OA
ENDROOT
TORSDOF 0
REMARK  Name = ../refined-set-2016/3ouj/3ouj_pocket.pdb
REMARK  166 active torsions:
REMARK  status: ('A' for Active; 'I' for Inactive)
REMARK    1  A    between atoms: _1  and  _3
REMARK    2  A    between atoms: _3  and  _4
REMARK    3  A    between atoms: _3  and  _6
REMARK    4  A    between atoms: _6  and  _7
REMARK    5  A    between atoms: _9  and  _11
REMARK    6  A    between atoms: _11  and  _12
REMARK    7  A    between atoms: _11  and  _14
REMARK    8  A    between atoms: _14  and  _15
REMARK    9  A    between atoms: _15  and  _16
REMARK   10  A    between atoms: _16  and  _17
REMARK   11  A    between atoms: _26  and  _28
REMARK   12  A    between atoms: _28  and  _29
REMARK   13  A    between atoms: _28  and  _31
REMARK   14  A    between atoms: _31  and  _32
REMARK   15  A    between atoms: _35  and  _37
REMARK   16  A    between atoms: _37  and  _38
REMARK   17  A    between atoms: _37  and  _40
REMARK   18  A    between atoms: _40  and  _41
REMARK   19  A    between atoms: _44  and  _46
REMARK   20  A    between atoms: _46  and  _47
REMARK   21  A    between atoms: _46  and  _49
REMARK   22  A    between atoms: _49  and  _50
REMARK   23  A    between atoms: _50  and  _51
REMARK   24  A    between atoms: _53  and  _55
REMARK   25  A    between atoms: _55  and  _56
REMARK   26  A    between atoms: _59  and  _61
REMARK   27  A    between atoms: _61  and  _62
REMARK   28  A    between atoms: _61  and  _64
REMARK   29  A    between atoms: _66  and  _68
REMARK   30  A    between atoms: _68  and  _69
REMARK   31  A    between atoms: _68  and  _71
REMARK   32  A    between atoms: _71  and  _72
REMARK   33  A    between atoms: _77  and  _78
REMARK   34  A    between atoms: _80  and  _82
REMARK   35  A    between atoms: _82  and  _83
REMARK   36  A    between atoms: _85  and  _87
REMARK   37  A    between atoms: _87  and  _88
REMARK   38  A    between atoms: _87  and  _90
REMARK   39  A    between atoms: _90  and  _91
REMARK   40  A    between atoms: _96  and  _97
REMARK   41  A    between atoms: _99  and  _101
REMARK   42  A    between atoms: _101  and  _102
REMARK   43  A    between atoms: _101  and  _104
REMARK   44  A    between atoms: _107  and  _109
REMARK   45  A    between atoms: _120  and  _123
REMARK   46  A    between atoms: _128  and  _129
REMARK   47  A    between atoms: _135  and  _137
REMARK   48  A    between atoms: _137  and  _138
REMARK   49  A    between atoms: _137  and  _140
REMARK   50  A    between atoms: _140  and  _141
REMARK   51  A    between atoms: _141  and  _142
REMARK   52  A    between atoms: _142  and  _143
REMARK   53  A    between atoms: _152  and  _154
REMARK   54  A    between atoms: _154  and  _155
REMARK   55  A    between atoms: _154  and  _157
REMARK   56  A    between atoms: _157  and  _158
REMARK   57  A    between atoms: _161  and  _163
REMARK   58  A    between atoms: _163  and  _164
REMARK   59  A    between atoms: _163  and  _166
REMARK   60  A    between atoms: _166  and  _167
REMARK   61  A    between atoms: _170  and  _172
REMARK   62  A    between atoms: _172  and  _173
REMARK   63  A    between atoms: _172  and  _175
REMARK   64  A    between atoms: _175  and  _176
REMARK   65  A    between atoms: _181  and  _182
REMARK   66  A    between atoms: _184  and  _186
REMARK   67  A    between atoms: _186  and  _187
REMARK   68  A    between atoms: _186  and  _189
REMARK   69  A    between atoms: _189  and  _190
REMARK   70  A    between atoms: _195  and  _196
REMARK   71  A    between atoms: _198  and  _200
REMARK   72  A    between atoms: _200  and  _201
REMARK   73  A    between atoms: _200  and  _203
REMARK   74  A    between atoms: _203  and  _204
REMARK   75  A    between atoms: _209  and  _211
REMARK   76  A    between atoms: _211  and  _212
REMARK   77  A    between atoms: _214  and  _216
REMARK   78  A    between atoms: _216  and  _217
REMARK   79  A    between atoms: _216  and  _219
REMARK   80  A    between atoms: _219  and  _220
REMARK   81  A    between atoms: _223  and  _225
REMARK   82  A    between atoms: _225  and  _226
REMARK   83  A    between atoms: _225  and  _228
REMARK   84  A    between atoms: _228  and  _229
REMARK   85  A    between atoms: _232  and  _234
REMARK   86  A    between atoms: _234  and  _235
REMARK   87  A    between atoms: _234  and  _237
REMARK   88  A    between atoms: _237  and  _238
REMARK   89  A    between atoms: _238  and  _239
REMARK   90  A    between atoms: _239  and  _240
REMARK   91  A    between atoms: _249  and  _251
REMARK   92  A    between atoms: _251  and  _252
REMARK   93  A    between atoms: _251  and  _254
REMARK   94  A    between atoms: _254  and  _255
REMARK   95  A    between atoms: _258  and  _260
REMARK   96  A    between atoms: _260  and  _261
REMARK   97  A    between atoms: _260  and  _263
REMARK   98  A    between atoms: _263  and  _264
REMARK   99  A    between atoms: _267  and  _269
REMARK  100  A    between atoms: _269  and  _270
REMARK  101  A    between atoms: _269  and  _272
REMARK  102  A    between atoms: _272  and  _273
REMARK  103  A    between atoms: _273  and  _274
REMARK  104  A    between atoms: _278  and  _279
REMARK  105  A    between atoms: _284  and  _286
REMARK  106  A    between atoms: _286  and  _287
REMARK  107  A    between atoms: _286  and  _289
REMARK  108  A    between atoms: _289  and  _290
REMARK  109  A    between atoms: _293  and  _295
REMARK  110  A    between atoms: _295  and  _296
REMARK  111  A    between atoms: _295  and  _298
REMARK  112  A    between atoms: _298  and  _299
REMARK  113  A    between atoms: _305  and  _307
REMARK  114  A    between atoms: _307  and  _308
REMARK  115  A    between atoms: _307  and  _310
REMARK  116  A    between atoms: _310  and  _311
REMARK  117  A    between atoms: _316  and  _318
REMARK  118  A    between atoms: _318  and  _319
REMARK  119  A    between atoms: _318  and  _321
REMARK  120  A    between atoms: _321  and  _322
REMARK  121  A    between atoms: _326  and  FE_441
REMARK  122  A    between atoms: _327  and  _329
REMARK  123  A    between atoms: _329  and  _330
REMARK  124  A    between atoms: _329  and  _332
REMARK  125  A    between atoms: _332  and  _333
REMARK  126  A    between atoms: _333  and  _334
REMARK  127  A    between atoms: _337  and  _339
REMARK  128  A    between atoms: _339  and  _340
REMARK  129  A    between atoms: _339  and  _342
REMARK  130  A    between atoms: _345  and  _347
REMARK  131  A    between atoms: _347  and  _348
REMARK  132  A    between atoms: _347  and  _350
REMARK  133  A    between atoms: _350  and  _351
REMARK  134  A    between atoms: _351  and  _352
REMARK  135  A    between atoms: _357  and  _359
REMARK  136  A    between atoms: _359  and  _360
REMARK  137  A    between atoms: _359  and  _362
REMARK  138  A    between atoms: _362  and  _363
REMARK  139  A    between atoms: _363  and  _364
REMARK  140  A    between atoms: _364  and  _365
REMARK  141  A    between atoms: _374  and  _376
REMARK  142  A    between atoms: _376  and  _377
REMARK  143  A    between atoms: _376  and  _379
REMARK  144  A    between atoms: _379  and  _380
REMARK  145  A    between atoms: _385  and  _386
REMARK  146  A    between atoms: _388  and  _390
REMARK  147  A    between atoms: _390  and  _391
REMARK  148  A    between atoms: _394  and  _396
REMARK  149  A    between atoms: _396  and  _397
REMARK  150  A    between atoms: _396  and  _399
REMARK  151  A    between atoms: _399  and  _400
REMARK  152  A    between atoms: _403  and  _405
REMARK  153  A    between atoms: _405  and  _406
REMARK  154  A    between atoms: _405  and  _408
REMARK  155  A    between atoms: _408  and  _409
REMARK  156  A    between atoms: _412  and  _414
REMARK  157  A    between atoms: _414  and  _415
REMARK  158  A    between atoms: _414  and  _417
REMARK  159  A    between atoms: _417  and  _418
REMARK  160  A    between atoms: _428  and  _430
REMARK  161  A    between atoms: _430  and  _431
REMARK  162  A    between atoms: _430  and  _433
REMARK  163  A    between atoms: _433  and  _434
REMARK  164  A    between atoms: _434  and  _435
REMARK  165  A    between atoms: _435  and  _436
REMARK  166  A    between atoms: _436  and  _437
REMARK                            x       y       z     vdW  Elec       q    Type
REMARK                         _______ _______ _______ _____ _____    ______ ____
ROOT
ATOM      1  O   HOH     1      13.923  23.462 -12.873  0.00  0.00    +0.000 OA
ENDROOT
TORSDOF 0
REMARK  Name = ../refined-set-2016/3ouj/3ouj_pocket.pdb
REMARK  166 active torsions:
REMARK  status: ('A' for Active; 'I' for Inactive)
REMARK    1  A    between atoms: _1  and  _3
REMARK    2  A    between atoms: _3  and  _4
REMARK    3  A    between atoms: _3  and  _6
REMARK    4  A    between atoms: _6  and  _7
REMARK    5  A    between atoms: _9  and  _11
REMARK    6  A    between atoms: _11  and  _12
REMARK    7  A    between atoms: _11  and  _14
REMARK    8  A    between atoms: _14  and  _15
REMARK    9  A    between atoms: _15  and  _16
REMARK   10  A    between atoms: _16  and  _17
REMARK   11  A    between atoms: _26  and  _28
REMARK   12  A    between atoms: _28  and  _29
REMARK   13  A    between atoms: _28  and  _31
REMARK   14  A    between atoms: _31  and  _32
REMARK   15  A    between atoms: _35  and  _37
REMARK   16  A    between atoms: _37  and  _38
REMARK   17  A    between atoms: _37  and  _40
REMARK   18  A    between atoms: _40  and  _41
REMARK   19  A    between atoms: _44  and  _46
REMARK   20  A    between atoms: _46  and  _47
REMARK   21  A    between atoms: _46  and  _49
REMARK   22  A    between atoms: _49  and  _50
REMARK   23  A    between atoms: _50  and  _51
REMARK   24  A    between atoms: _53  and  _55
REMARK   25  A    between atoms: _55  and  _56
REMARK   26  A    between atoms: _59  and  _61
REMARK   27  A    between atoms: _61  and  _62
REMARK   28  A    between atoms: _61  and  _64
REMARK   29  A    between atoms: _66  and  _68
REMARK   30  A    between atoms: _68  and  _69
REMARK   31  A    between atoms: _68  and  _71
REMARK   32  A    between atoms: _71  and  _72
REMARK   33  A    between atoms: _77  and  _78
REMARK   34  A    between atoms: _80  and  _82
REMARK   35  A    between atoms: _82  and  _83
REMARK   36  A    between atoms: _85  and  _87
REMARK   37  A    between atoms: _87  and  _88
REMARK   38  A    between atoms: _87  and  _90
REMARK   39  A    between atoms: _90  and  _91
REMARK   40  A    between atoms: _96  and  _97
REMARK   41  A    between atoms: _99  and  _101
REMARK   42  A    between atoms: _101  and  _102
REMARK   43  A    between atoms: _101  and  _104
REMARK   44  A    between atoms: _107  and  _109
REMARK   45  A    between atoms: _120  and  _123
REMARK   46  A    between atoms: _128  and  _129
REMARK   47  A    between atoms: _135  and  _137
REMARK   48  A    between atoms: _137  and  _138
REMARK   49  A    between atoms: _137  and  _140
REMARK   50  A    between atoms: _140  and  _141
REMARK   51  A    between atoms: _141  and  _142
REMARK   52  A    between atoms: _142  and  _143
REMARK   53  A    between atoms: _152  and  _154
REMARK   54  A    between atoms: _154  and  _155
REMARK   55  A    between atoms: _154  and  _157
REMARK   56  A    between atoms: _157  and  _158
REMARK   57  A    between atoms: _161  and  _163
REMARK   58  A    between atoms: _163  and  _164
REMARK   59  A    between atoms: _163  and  _166
REMARK   60  A    between atoms: _166  and  _167
REMARK   61  A    between atoms: _170  and  _172
REMARK   62  A    between atoms: _172  and  _173
REMARK   63  A    between atoms: _172  and  _175
REMARK   64  A    between atoms: _175  and  _176
REMARK   65  A    between atoms: _181  and  _182
REMARK   66  A    between atoms: _184  and  _186
REMARK   67  A    between atoms: _186  and  _187
REMARK   68  A    between atoms: _186  and  _189
REMARK   69  A    between atoms: _189  and  _190
REMARK   70  A    between atoms: _195  and  _196
REMARK   71  A    between atoms: _198  and  _200
REMARK   72  A    between atoms: _200  and  _201
REMARK   73  A    between atoms: _200  and  _203
REMARK   74  A    between atoms: _203  and  _204
REMARK   75  A    between atoms: _209  and  _211
REMARK   76  A    between atoms: _211  and  _212
REMARK   77  A    between atoms: _214  and  _216
REMARK   78  A    between atoms: _216  and  _217
REMARK   79  A    between atoms: _216  and  _219
REMARK   80  A    between atoms: _219  and  _220
REMARK   81  A    between atoms: _223  and  _225
REMARK   82  A    between atoms: _225  and  _226
REMARK   83  A    between atoms: _225  and  _228
REMARK   84  A    between atoms: _228  and  _229
REMARK   85  A    between atoms: _232  and  _234
REMARK   86  A    between atoms: _234  and  _235
REMARK   87  A    between atoms: _234  and  _237
REMARK   88  A    between atoms: _237  and  _238
REMARK   89  A    between atoms: _238  and  _239
REMARK   90  A    between atoms: _239  and  _240
REMARK   91  A    between atoms: _249  and  _251
REMARK   92  A    between atoms: _251  and  _252
REMARK   93  A    between atoms: _251  and  _254
REMARK   94  A    between atoms: _254  and  _255
REMARK   95  A    between atoms: _258  and  _260
REMARK   96  A    between atoms: _260  and  _261
REMARK   97  A    between atoms: _260  and  _263
REMARK   98  A    between atoms: _263  and  _264
REMARK   99  A    between atoms: _267  and  _269
REMARK  100  A    between atoms: _269  and  _270
REMARK  101  A    between atoms: _269  and  _272
REMARK  102  A    between atoms: _272  and  _273
REMARK  103  A    between atoms: _273  and  _274
REMARK  104  A    between atoms: _278  and  _279
REMARK  105  A    between atoms: _284  and  _286
REMARK  106  A    between atoms: _286  and  _287
REMARK  107  A    between atoms: _286  and  _289
REMARK  108  A    between atoms: _289  and  _290
REMARK  109  A    between atoms: _293  and  _295
REMARK  110  A    between atoms: _295  and  _296
REMARK  111  A    between atoms: _295  and  _298
REMARK  112  A    between atoms: _298  and  _299
REMARK  113  A    between atoms: _305  and  _307
REMARK  114  A    between atoms: _307  and  _308
REMARK  115  A    between atoms: _307  and  _310
REMARK  116  A    between atoms: _310  and  _311
REMARK  117  A    between atoms: _316  and  _318
REMARK  118  A    between atoms: _318  and  _319
REMARK  119  A    between atoms: _318  and  _321
REMARK  120  A    between atoms: _321  and  _322
REMARK  121  A    between atoms: _326  and  FE_441
REMARK  122  A    between atoms: _327  and  _329
REMARK  123  A    between atoms: _329  and  _330
REMARK  124  A    between atoms: _329  and  _332
REMARK  125  A    between atoms: _332  and  _333
REMARK  126  A    between atoms: _333  and  _334
REMARK  127  A    between atoms: _337  and  _339
REMARK  128  A    between atoms: _339  and  _340
REMARK  129  A    between atoms: _339  and  _342
REMARK  130  A    between atoms: _345  and  _347
REMARK  131  A    between atoms: _347  and  _348
REMARK  132  A    between atoms: _347  and  _350
REMARK  133  A    between atoms: _350  and  _351
REMARK  134  A    between atoms: _351  and  _352
REMARK  135  A    between atoms: _357  and  _359
REMARK  136  A    between atoms: _359  and  _360
REMARK  137  A    between atoms: _359  and  _362
REMARK  138  A    between atoms: _362  and  _363
REMARK  139  A    between atoms: _363  and  _364
REMARK  140  A    between atoms: _364  and  _365
REMARK  141  A    between atoms: _374  and  _376
REMARK  142  A    between atoms: _376  and  _377
REMARK  143  A    between atoms: _376  and  _379
REMARK  144  A    between atoms: _379  and  _380
REMARK  145  A    between atoms: _385  and  _386
REMARK  146  A    between atoms: _388  and  _390
REMARK  147  A    between atoms: _390  and  _391
REMARK  148  A    between atoms: _394  and  _396
REMARK  149  A    between atoms: _396  and  _397
REMARK  150  A    between atoms: _396  and  _399
REMARK  151  A    between atoms: _399  and  _400
REMARK  152  A    between atoms: _403  and  _405
REMARK  153  A    between atoms: _405  and  _406
REMARK  154  A    between atoms: _405  and  _408
REMARK  155  A    between atoms: _408  and  _409
REMARK  156  A    between atoms: _412  and  _414
REMARK  157  A    between atoms: _414  and  _415
REMARK  158  A    between atoms: _414  and  _417
REMARK  159  A    between atoms: _417  and  _418
REMARK  160  A    between atoms: _428  and  _430
REMARK  161  A    between atoms: _430  and  _431
REMARK  162  A    between atoms: _430  and  _433
REMARK  163  A    between atoms: _433  and  _434
REMARK  164  A    between atoms: _434  and  _435
REMARK  165  A    between atoms: _435  and  _436
REMARK  166  A    between atoms: _436  and  _437
REMARK                            x       y       z     vdW  Elec       q    Type
REMARK                         _______ _______ _______ _____ _____    ______ ____
ROOT
ATOM      1  O   HOH     1      14.793  21.592  -6.735  0.00  0.00    +0.000 OA
ENDROOT
TORSDOF 0
