REMARK  Name = ../refined-set-2016/3gy7/3gy7_pocket.pdb
REMARK  125 active torsions:
REMARK  status: ('A' for Active; 'I' for Inactive)
REMARK    1  A    between atoms: _1  and  _5
REMARK    2  A    between atoms: _5  and  _6
REMARK    3  A    between atoms: _5  and  _8
REMARK    4  A    between atoms: _8  and  _9
REMARK    5  A    between atoms: _12  and  _14
REMARK    6  A    between atoms: _14  and  _15
REMARK    7  A    between atoms: _14  and  _17
REMARK    8  A    between atoms: _20  and  _22
REMARK    9  A    between atoms: _22  and  _23
REMARK   10  A    between atoms: _22  and  _25
REMARK   11  A    between atoms: _25  and  _26
REMARK   12  A    between atoms: _31  and  _33
REMARK   13  A    between atoms: _33  and  _34
REMARK   14  A    between atoms: _33  and  _36
REMARK   15  A    between atoms: _36  and  _37
REMARK   16  A    between atoms: _40  and  _42
REMARK   17  A    between atoms: _42  and  _43
REMARK   18  A    between atoms: _42  and  _45
REMARK   19  A    between atoms: _45  and  _46
REMARK   20  A    between atoms: _49  and  _51
REMARK   21  A    between atoms: _51  and  _52
REMARK   22  A    between atoms: _51  and  _54
REMARK   23  A    between atoms: _54  and  _55
REMARK   24  A    between atoms: _58  and  _60
REMARK   25  A    between atoms: _60  and  _61
REMARK   26  A    between atoms: _60  and  _63
REMARK   27  A    between atoms: _63  and  _64
REMARK   28  A    between atoms: _69  and  _71
REMARK   29  A    between atoms: _71  and  _72
REMARK   30  A    between atoms: _71  and  _74
REMARK   31  A    between atoms: _74  and  _75
REMARK   32  A    between atoms: _80  and  _81
REMARK   33  A    between atoms: _83  and  _85
REMARK   34  A    between atoms: _85  and  _86
REMARK   35  A    between atoms: _89  and  _91
REMARK   36  A    between atoms: _91  and  _92
REMARK   37  A    between atoms: _91  and  _94
REMARK   38  A    between atoms: _94  and  _95
REMARK   39  A    between atoms: _95  and  _96
REMARK   40  A    between atoms: _96  and  _97
REMARK   41  A    between atoms: _97  and  _98
REMARK   42  A    between atoms: _102  and  _104
REMARK   43  A    between atoms: _104  and  _105
REMARK   44  A    between atoms: _104  and  _107
REMARK   45  A    between atoms: _107  and  _108
REMARK   46  A    between atoms: _111  and  _113
REMARK   47  A    between atoms: _113  and  _114
REMARK   48  A    between atoms: _113  and  _116
REMARK   49  A    between atoms: _116  and  _117
REMARK   50  A    between atoms: _119  and  _121
REMARK   51  A    between atoms: _121  and  _122
REMARK   52  A    between atoms: _121  and  _124
REMARK   53  A    between atoms: _124  and  _125
REMARK   54  A    between atoms: _125  and  _235
REMARK   55  A    between atoms: _126  and  _128
REMARK   56  A    between atoms: _128  and  _129
REMARK   57  A    between atoms: _128  and  _131
REMARK   58  A    between atoms: _131  and  _132
REMARK   59  A    between atoms: _132  and  _133
REMARK   60  A    between atoms: _138  and  _140
REMARK   61  A    between atoms: _140  and  _141
REMARK   62  A    between atoms: _143  and  _145
REMARK   63  A    between atoms: _145  and  _146
REMARK   64  A    between atoms: _145  and  _148
REMARK   65  A    between atoms: _148  and  _149
REMARK   66  A    between atoms: _152  and  _154
REMARK   67  A    between atoms: _154  and  _155
REMARK   68  A    between atoms: _154  and  _157
REMARK   69  A    between atoms: _157  and  _158
REMARK   70  A    between atoms: _160  and  _162
REMARK   71  A    between atoms: _162  and  _163
REMARK   72  A    between atoms: _165  and  _167
REMARK   73  A    between atoms: _167  and  _168
REMARK   74  A    between atoms: _170  and  _172
REMARK   75  A    between atoms: _172  and  _173
REMARK   76  A    between atoms: _172  and  _175
REMARK   77  A    between atoms: _175  and  _176
REMARK   78  A    between atoms: _179  and  _181
REMARK   79  A    between atoms: _181  and  _182
REMARK   80  A    between atoms: _181  and  _184
REMARK   81  A    between atoms: _187  and  _189
REMARK   82  A    between atoms: _189  and  _190
REMARK   83  A    between atoms: _189  and  _192
REMARK   84  A    between atoms: _192  and  _193
REMARK   85  A    between atoms: _195  and  _197
REMARK   86  A    between atoms: _197  and  _198
REMARK   87  A    between atoms: _197  and  _200
REMARK   88  A    between atoms: _200  and  _201
REMARK   89  A    between atoms: _211  and  _213
REMARK   90  A    between atoms: _213  and  _214
REMARK   91  A    between atoms: _216  and  _218
REMARK   92  A    between atoms: _218  and  _219
REMARK   93  A    between atoms: _218  and  _221
REMARK   94  A    between atoms: _221  and  _222
REMARK   95  A    between atoms: _224  and  _226
REMARK   96  A    between atoms: _226  and  _227
REMARK   97  A    between atoms: _229  and  _231
REMARK   98  A    between atoms: _231  and  _232
REMARK   99  A    between atoms: _231  and  _234
REMARK  100  A    between atoms: _234  and  _235
REMARK  101  A    between atoms: _236  and  _238
REMARK  102  A    between atoms: _238  and  _239
REMARK  103  A    between atoms: _242  and  _244
REMARK  104  A    between atoms: _244  and  _245
REMARK  105  A    between atoms: _244  and  _247
REMARK  106  A    between atoms: _247  and  _248
REMARK  107  A    between atoms: _248  and  _249
REMARK  108  A    between atoms: _254  and  _256
REMARK  109  A    between atoms: _256  and  _257
REMARK  110  A    between atoms: _256  and  _259
REMARK  111  A    between atoms: _259  and  _260
REMARK  112  A    between atoms: _260  and  _261
REMARK  113  A    between atoms: _261  and  _262
REMARK  114  A    between atoms: _262  and  _263
REMARK  115  A    between atoms: _268  and  _269
REMARK  116  A    between atoms: _274  and  _276
REMARK  117  A    between atoms: _276  and  _277
REMARK  118  A    between atoms: _279  and  _281
REMARK  119  A    between atoms: _281  and  _282
REMARK  120  A    between atoms: _281  and  _284
REMARK  121  A    between atoms: _287  and  _289
REMARK  122  A    between atoms: _289  and  _290
REMARK  123  A    between atoms: _289  and  _292
REMARK  124  A    between atoms: _292  and  _293
REMARK  125  A    between atoms: _298  and  _299
REMARK                            x       y       z     vdW  Elec       q    Type
REMARK                         _______ _______ _______ _____ _____    ______ ____
ROOT
ATOM      1  C   ILE A   1      -9.347   8.720  18.090  0.00  0.00    +0.202 C 
ATOM      2  O   ILE A   1     -10.446   8.574  18.633  0.00  0.00    -0.277 OA
ATOM      3  N   VAL A   2      -9.183   9.068  16.819  0.00  0.00    -0.301 N 
ATOM      4  H   VAL A   2      -8.216   9.197  16.459  0.00  0.00    +0.150 HD
ENDROOT
BRANCH   1   5
ATOM      5  CA  ILE A   1      -8.063   8.500  18.873  0.00  0.00    +0.013 C 
BRANCH   5   6
ATOM      6  N   ILE A   1      -8.055   9.434  20.041  0.00  0.00    +0.387 N 
ATOM      7  H1  ILE A   1      -8.878   9.238  20.645  0.00  0.00    -0.089 HD
ATOM      8  H2  ILE A   1      -7.181   9.296  20.588  0.00  0.00    -0.089 HD
ATOM      9  H3  ILE A   1      -8.100  10.415  19.699  0.00  0.00    -0.089 HD
ENDBRANCH   5   6
BRANCH   5  10
ATOM     10  CB  ILE A   1      -8.008   7.011  19.340  0.00  0.00    -0.011 C 
ATOM     11  CG2 ILE A   1      -8.010   6.041  18.144  0.00  0.00    -0.002 C 
BRANCH  10  12
ATOM     12  CG1 ILE A   1      -6.784   6.732  20.230  0.00  0.00    -0.002 C 
ATOM     13  CD1 ILE A   1      -5.423   6.685  19.493  0.00  0.00    -0.000 C 
ENDBRANCH  10  12
ENDBRANCH   5  10
ENDBRANCH   1   5
BRANCH   3  14
ATOM     14  CA  VAL A   2     -10.305   9.278  15.903  0.00  0.00    +0.137 C 
BRANCH  14  15
ATOM     15  CB  VAL A   2     -10.071  10.512  15.008  0.00  0.00    +0.026 C 
ATOM     16  CG2 VAL A   2      -9.876  11.751  15.868  0.00  0.00    +0.002 C 
ATOM     17  CG1 VAL A   2     -11.230  10.695  14.020  0.00  0.00    +0.002 C 
ENDBRANCH  14  15
BRANCH  14  18
ATOM     18  C   VAL A   2     -10.458   8.042  15.031  0.00  0.00    +0.227 C 
ATOM     19  O   VAL A   2      -9.469   7.529  14.495  0.00  0.00    -0.286 OA
ENDBRANCH  14  18
ENDBRANCH   3  14
TORSDOF 7
REMARK  Name = ../refined-set-2016/3gy7/3gy7_pocket.pdb
REMARK  125 active torsions:
REMARK  status: ('A' for Active; 'I' for Inactive)
REMARK    1  A    between atoms: _1  and  _5
REMARK    2  A    between atoms: _5  and  _6
REMARK    3  A    between atoms: _5  and  _8
REMARK    4  A    between atoms: _8  and  _9
REMARK    5  A    between atoms: _12  and  _14
REMARK    6  A    between atoms: _14  and  _15
REMARK    7  A    between atoms: _14  and  _17
REMARK    8  A    between atoms: _20  and  _22
REMARK    9  A    between atoms: _22  and  _23
REMARK   10  A    between atoms: _22  and  _25
REMARK   11  A    between atoms: _25  and  _26
REMARK   12  A    between atoms: _31  and  _33
REMARK   13  A    between atoms: _33  and  _34
REMARK   14  A    between atoms: _33  and  _36
REMARK   15  A    between atoms: _36  and  _37
REMARK   16  A    between atoms: _40  and  _42
REMARK   17  A    between atoms: _42  and  _43
REMARK   18  A    between atoms: _42  and  _45
REMARK   19  A    between atoms: _45  and  _46
REMARK   20  A    between atoms: _49  and  _51
REMARK   21  A    between atoms: _51  and  _52
REMARK   22  A    between atoms: _51  and  _54
REMARK   23  A    between atoms: _54  and  _55
REMARK   24  A    between atoms: _58  and  _60
REMARK   25  A    between atoms: _60  and  _61
REMARK   26  A    between atoms: _60  and  _63
REMARK   27  A    between atoms: _63  and  _64
REMARK   28  A    between atoms: _69  and  _71
REMARK   29  A    between atoms: _71  and  _72
REMARK   30  A    between atoms: _71  and  _74
REMARK   31  A    between atoms: _74  and  _75
REMARK   32  A    between atoms: _80  and  _81
REMARK   33  A    between atoms: _83  and  _85
REMARK   34  A    between atoms: _85  and  _86
REMARK   35  A    between atoms: _89  and  _91
REMARK   36  A    between atoms: _91  and  _92
REMARK   37  A    between atoms: _91  and  _94
REMARK   38  A    between atoms: _94  and  _95
REMARK   39  A    between atoms: _95  and  _96
REMARK   40  A    between atoms: _96  and  _97
REMARK   41  A    between atoms: _97  and  _98
REMARK   42  A    between atoms: _102  and  _104
REMARK   43  A    between atoms: _104  and  _105
REMARK   44  A    between atoms: _104  and  _107
REMARK   45  A    between atoms: _107  and  _108
REMARK   46  A    between atoms: _111  and  _113
REMARK   47  A    between atoms: _113  and  _114
REMARK   48  A    between atoms: _113  and  _116
REMARK   49  A    between atoms: _116  and  _117
REMARK   50  A    between atoms: _119  and  _121
REMARK   51  A    between atoms: _121  and  _122
REMARK   52  A    between atoms: _121  and  _124
REMARK   53  A    between atoms: _124  and  _125
REMARK   54  A    between atoms: _125  and  _235
REMARK   55  A    between atoms: _126  and  _128
REMARK   56  A    between atoms: _128  and  _129
REMARK   57  A    between atoms: _128  and  _131
REMARK   58  A    between atoms: _131  and  _132
REMARK   59  A    between atoms: _132  and  _133
REMARK   60  A    between atoms: _138  and  _140
REMARK   61  A    between atoms: _140  and  _141
REMARK   62  A    between atoms: _143  and  _145
REMARK   63  A    between atoms: _145  and  _146
REMARK   64  A    between atoms: _145  and  _148
REMARK   65  A    between atoms: _148  and  _149
REMARK   66  A    between atoms: _152  and  _154
REMARK   67  A    between atoms: _154  and  _155
REMARK   68  A    between atoms: _154  and  _157
REMARK   69  A    between atoms: _157  and  _158
REMARK   70  A    between atoms: _160  and  _162
REMARK   71  A    between atoms: _162  and  _163
REMARK   72  A    between atoms: _165  and  _167
REMARK   73  A    between atoms: _167  and  _168
REMARK   74  A    between atoms: _170  and  _172
REMARK   75  A    between atoms: _172  and  _173
REMARK   76  A    between atoms: _172  and  _175
REMARK   77  A    between atoms: _175  and  _176
REMARK   78  A    between atoms: _179  and  _181
REMARK   79  A    between atoms: _181  and  _182
REMARK   80  A    between atoms: _181  and  _184
REMARK   81  A    between atoms: _187  and  _189
REMARK   82  A    between atoms: _189  and  _190
REMARK   83  A    between atoms: _189  and  _192
REMARK   84  A    between atoms: _192  and  _193
REMARK   85  A    between atoms: _195  and  _197
REMARK   86  A    between atoms: _197  and  _198
REMARK   87  A    between atoms: _197  and  _200
REMARK   88  A    between atoms: _200  and  _201
REMARK   89  A    between atoms: _211  and  _213
REMARK   90  A    between atoms: _213  and  _214
REMARK   91  A    between atoms: _216  and  _218
REMARK   92  A    between atoms: _218  and  _219
REMARK   93  A    between atoms: _218  and  _221
REMARK   94  A    between atoms: _221  and  _222
REMARK   95  A    between atoms: _224  and  _226
REMARK   96  A    between atoms: _226  and  _227
REMARK   97  A    between atoms: _229  and  _231
REMARK   98  A    between atoms: _231  and  _232
REMARK   99  A    between atoms: _231  and  _234
REMARK  100  A    between atoms: _234  and  _235
REMARK  101  A    between atoms: _236  and  _238
REMARK  102  A    between atoms: _238  and  _239
REMARK  103  A    between atoms: _242  and  _244
REMARK  104  A    between atoms: _244  and  _245
REMARK  105  A    between atoms: _244  and  _247
REMARK  106  A    between atoms: _247  and  _248
REMARK  107  A    between atoms: _248  and  _249
REMARK  108  A    between atoms: _254  and  _256
REMARK  109  A    between atoms: _256  and  _257
REMARK  110  A    between atoms: _256  and  _259
REMARK  111  A    between atoms: _259  and  _260
REMARK  112  A    between atoms: _260  and  _261
REMARK  113  A    between atoms: _261  and  _262
REMARK  114  A    between atoms: _262  and  _263
REMARK  115  A    between atoms: _268  and  _269
REMARK  116  A    between atoms: _274  and  _276
REMARK  117  A    between atoms: _276  and  _277
REMARK  118  A    between atoms: _279  and  _281
REMARK  119  A    between atoms: _281  and  _282
REMARK  120  A    between atoms: _281  and  _284
REMARK  121  A    between atoms: _287  and  _289
REMARK  122  A    between atoms: _289  and  _290
REMARK  123  A    between atoms: _289  and  _292
REMARK  124  A    between atoms: _292  and  _293
REMARK  125  A    between atoms: _298  and  _299
REMARK                            x       y       z     vdW  Elec       q    Type
REMARK                         _______ _______ _______ _____ _____    ______ ____
ROOT
ATOM      1  CB  HIS A   1       5.823  18.077  23.225  0.00  0.00    +0.072 C 
ENDROOT
BRANCH   1   2
ATOM      2  CG  HIS A   1       4.608  17.291  22.844  0.00  0.00    +0.082 A 
ATOM      3  CD2 HIS A   1       3.298  17.486  23.133  0.00  0.00    +0.115 A 
ATOM      4  NE2 HIS A   1       2.586  16.509  22.480  0.00  0.00    -0.221 NA
ATOM      5  CE1 HIS A   1       3.429  15.736  21.814  0.00  0.00    +0.199 A 
ATOM      6  ND1 HIS A   1       4.656  16.191  22.006  0.00  0.00    -0.227 NA
ENDBRANCH   1   2
BRANCH   1   7
ATOM      7  CA  HIS A   1       6.362  17.802  24.635  0.00  0.00    +0.139 C 
BRANCH   7   8
ATOM      8  N   HIS A   1       7.283  16.673  24.661  0.00  0.00    -0.239 NA
ATOM      9  H   HIS A   1       7.268  15.972  23.893  0.00  0.00    +0.142 HD
ENDBRANCH   7   8
BRANCH   7  10
ATOM     10  C   HIS A   1       5.277  17.674  25.712  0.00  0.00    +0.224 C 
ATOM     11  O   HIS A   1       4.539  18.636  25.961  0.00  0.00    -0.287 OA
ENDBRANCH   7  10
ENDBRANCH   1   7
TORSDOF 4
REMARK  Name = ../refined-set-2016/3gy7/3gy7_pocket.pdb
REMARK  125 active torsions:
REMARK  status: ('A' for Active; 'I' for Inactive)
REMARK    1  A    between atoms: _1  and  _5
REMARK    2  A    between atoms: _5  and  _6
REMARK    3  A    between atoms: _5  and  _8
REMARK    4  A    between atoms: _8  and  _9
REMARK    5  A    between atoms: _12  and  _14
REMARK    6  A    between atoms: _14  and  _15
REMARK    7  A    between atoms: _14  and  _17
REMARK    8  A    between atoms: _20  and  _22
REMARK    9  A    between atoms: _22  and  _23
REMARK   10  A    between atoms: _22  and  _25
REMARK   11  A    between atoms: _25  and  _26
REMARK   12  A    between atoms: _31  and  _33
REMARK   13  A    between atoms: _33  and  _34
REMARK   14  A    between atoms: _33  and  _36
REMARK   15  A    between atoms: _36  and  _37
REMARK   16  A    between atoms: _40  and  _42
REMARK   17  A    between atoms: _42  and  _43
REMARK   18  A    between atoms: _42  and  _45
REMARK   19  A    between atoms: _45  and  _46
REMARK   20  A    between atoms: _49  and  _51
REMARK   21  A    between atoms: _51  and  _52
REMARK   22  A    between atoms: _51  and  _54
REMARK   23  A    between atoms: _54  and  _55
REMARK   24  A    between atoms: _58  and  _60
REMARK   25  A    between atoms: _60  and  _61
REMARK   26  A    between atoms: _60  and  _63
REMARK   27  A    between atoms: _63  and  _64
REMARK   28  A    between atoms: _69  and  _71
REMARK   29  A    between atoms: _71  and  _72
REMARK   30  A    between atoms: _71  and  _74
REMARK   31  A    between atoms: _74  and  _75
REMARK   32  A    between atoms: _80  and  _81
REMARK   33  A    between atoms: _83  and  _85
REMARK   34  A    between atoms: _85  and  _86
REMARK   35  A    between atoms: _89  and  _91
REMARK   36  A    between atoms: _91  and  _92
REMARK   37  A    between atoms: _91  and  _94
REMARK   38  A    between atoms: _94  and  _95
REMARK   39  A    between atoms: _95  and  _96
REMARK   40  A    between atoms: _96  and  _97
REMARK   41  A    between atoms: _97  and  _98
REMARK   42  A    between atoms: _102  and  _104
REMARK   43  A    between atoms: _104  and  _105
REMARK   44  A    between atoms: _104  and  _107
REMARK   45  A    between atoms: _107  and  _108
REMARK   46  A    between atoms: _111  and  _113
REMARK   47  A    between atoms: _113  and  _114
REMARK   48  A    between atoms: _113  and  _116
REMARK   49  A    between atoms: _116  and  _117
REMARK   50  A    between atoms: _119  and  _121
REMARK   51  A    between atoms: _121  and  _122
REMARK   52  A    between atoms: _121  and  _124
REMARK   53  A    between atoms: _124  and  _125
REMARK   54  A    between atoms: _125  and  _235
REMARK   55  A    between atoms: _126  and  _128
REMARK   56  A    between atoms: _128  and  _129
REMARK   57  A    between atoms: _128  and  _131
REMARK   58  A    between atoms: _131  and  _132
REMARK   59  A    between atoms: _132  and  _133
REMARK   60  A    between atoms: _138  and  _140
REMARK   61  A    between atoms: _140  and  _141
REMARK   62  A    between atoms: _143  and  _145
REMARK   63  A    between atoms: _145  and  _146
REMARK   64  A    between atoms: _145  and  _148
REMARK   65  A    between atoms: _148  and  _149
REMARK   66  A    between atoms: _152  and  _154
REMARK   67  A    between atoms: _154  and  _155
REMARK   68  A    between atoms: _154  and  _157
REMARK   69  A    between atoms: _157  and  _158
REMARK   70  A    between atoms: _160  and  _162
REMARK   71  A    between atoms: _162  and  _163
REMARK   72  A    between atoms: _165  and  _167
REMARK   73  A    between atoms: _167  and  _168
REMARK   74  A    between atoms: _170  and  _172
REMARK   75  A    between atoms: _172  and  _173
REMARK   76  A    between atoms: _172  and  _175
REMARK   77  A    between atoms: _175  and  _176
REMARK   78  A    between atoms: _179  and  _181
REMARK   79  A    between atoms: _181  and  _182
REMARK   80  A    between atoms: _181  and  _184
REMARK   81  A    between atoms: _187  and  _189
REMARK   82  A    between atoms: _189  and  _190
REMARK   83  A    between atoms: _189  and  _192
REMARK   84  A    between atoms: _192  and  _193
REMARK   85  A    between atoms: _195  and  _197
REMARK   86  A    between atoms: _197  and  _198
REMARK   87  A    between atoms: _197  and  _200
REMARK   88  A    between atoms: _200  and  _201
REMARK   89  A    between atoms: _211  and  _213
REMARK   90  A    between atoms: _213  and  _214
REMARK   91  A    between atoms: _216  and  _218
REMARK   92  A    between atoms: _218  and  _219
REMARK   93  A    between atoms: _218  and  _221
REMARK   94  A    between atoms: _221  and  _222
REMARK   95  A    between atoms: _224  and  _226
REMARK   96  A    between atoms: _226  and  _227
REMARK   97  A    between atoms: _229  and  _231
REMARK   98  A    between atoms: _231  and  _232
REMARK   99  A    between atoms: _231  and  _234
REMARK  100  A    between atoms: _234  and  _235
REMARK  101  A    between atoms: _236  and  _238
REMARK  102  A    between atoms: _238  and  _239
REMARK  103  A    between atoms: _242  and  _244
REMARK  104  A    between atoms: _244  and  _245
REMARK  105  A    between atoms: _244  and  _247
REMARK  106  A    between atoms: _247  and  _248
REMARK  107  A    between atoms: _248  and  _249
REMARK  108  A    between atoms: _254  and  _256
REMARK  109  A    between atoms: _256  and  _257
REMARK  110  A    between atoms: _256  and  _259
REMARK  111  A    between atoms: _259  and  _260
REMARK  112  A    between atoms: _260  and  _261
REMARK  113  A    between atoms: _261  and  _262
REMARK  114  A    between atoms: _262  and  _263
REMARK  115  A    between atoms: _268  and  _269
REMARK  116  A    between atoms: _274  and  _276
REMARK  117  A    between atoms: _276  and  _277
REMARK  118  A    between atoms: _279  and  _281
REMARK  119  A    between atoms: _281  and  _282
REMARK  120  A    between atoms: _281  and  _284
REMARK  121  A    between atoms: _287  and  _289
REMARK  122  A    between atoms: _289  and  _290
REMARK  123  A    between atoms: _289  and  _292
REMARK  124  A    between atoms: _292  and  _293
REMARK  125  A    between atoms: _298  and  _299
REMARK                            x       y       z     vdW  Elec       q    Type
REMARK                         _______ _______ _______ _____ _____    ______ ____
ROOT
ATOM      1  CA  LEU A   1       9.615  18.237  17.683  0.00  0.00    +0.133 C 
ENDROOT
BRANCH   1   2
ATOM      2  N   LEU A   1       9.997  19.489  17.021  0.00  0.00    -0.239 NA
ATOM      3  H   LEU A   1      10.247  20.299  17.623  0.00  0.00    +0.142 HD
ENDBRANCH   1   2
BRANCH   1   4
ATOM      4  C   LEU A   1      10.602  17.091  17.422  0.00  0.00    +0.224 C 
ATOM      5  O   LEU A   1      10.296  15.928  17.696  0.00  0.00    -0.287 OA
ENDBRANCH   1   4
BRANCH   1   6
ATOM      6  CB  LEU A   1       8.147  17.834  17.429  0.00  0.00    +0.025 C 
BRANCH   6   7
ATOM      7  CG  LEU A   1       7.109  18.785  18.060  0.00  0.00    +0.002 C 
ATOM      8  CD2 LEU A   1       7.397  19.072  19.531  0.00  0.00    +0.000 C 
ATOM      9  CD1 LEU A   1       5.699  18.251  17.916  0.00  0.00    +0.000 C 
ENDBRANCH   6   7
ENDBRANCH   1   6
TORSDOF 4
REMARK  Name = ../refined-set-2016/3gy7/3gy7_pocket.pdb
REMARK  125 active torsions:
REMARK  status: ('A' for Active; 'I' for Inactive)
REMARK    1  A    between atoms: _1  and  _5
REMARK    2  A    between atoms: _5  and  _6
REMARK    3  A    between atoms: _5  and  _8
REMARK    4  A    between atoms: _8  and  _9
REMARK    5  A    between atoms: _12  and  _14
REMARK    6  A    between atoms: _14  and  _15
REMARK    7  A    between atoms: _14  and  _17
REMARK    8  A    between atoms: _20  and  _22
REMARK    9  A    between atoms: _22  and  _23
REMARK   10  A    between atoms: _22  and  _25
REMARK   11  A    between atoms: _25  and  _26
REMARK   12  A    between atoms: _31  and  _33
REMARK   13  A    between atoms: _33  and  _34
REMARK   14  A    between atoms: _33  and  _36
REMARK   15  A    between atoms: _36  and  _37
REMARK   16  A    between atoms: _40  and  _42
REMARK   17  A    between atoms: _42  and  _43
REMARK   18  A    between atoms: _42  and  _45
REMARK   19  A    between atoms: _45  and  _46
REMARK   20  A    between atoms: _49  and  _51
REMARK   21  A    between atoms: _51  and  _52
REMARK   22  A    between atoms: _51  and  _54
REMARK   23  A    between atoms: _54  and  _55
REMARK   24  A    between atoms: _58  and  _60
REMARK   25  A    between atoms: _60  and  _61
REMARK   26  A    between atoms: _60  and  _63
REMARK   27  A    between atoms: _63  and  _64
REMARK   28  A    between atoms: _69  and  _71
REMARK   29  A    between atoms: _71  and  _72
REMARK   30  A    between atoms: _71  and  _74
REMARK   31  A    between atoms: _74  and  _75
REMARK   32  A    between atoms: _80  and  _81
REMARK   33  A    between atoms: _83  and  _85
REMARK   34  A    between atoms: _85  and  _86
REMARK   35  A    between atoms: _89  and  _91
REMARK   36  A    between atoms: _91  and  _92
REMARK   37  A    between atoms: _91  and  _94
REMARK   38  A    between atoms: _94  and  _95
REMARK   39  A    between atoms: _95  and  _96
REMARK   40  A    between atoms: _96  and  _97
REMARK   41  A    between atoms: _97  and  _98
REMARK   42  A    between atoms: _102  and  _104
REMARK   43  A    between atoms: _104  and  _105
REMARK   44  A    between atoms: _104  and  _107
REMARK   45  A    between atoms: _107  and  _108
REMARK   46  A    between atoms: _111  and  _113
REMARK   47  A    between atoms: _113  and  _114
REMARK   48  A    between atoms: _113  and  _116
REMARK   49  A    between atoms: _116  and  _117
REMARK   50  A    between atoms: _119  and  _121
REMARK   51  A    between atoms: _121  and  _122
REMARK   52  A    between atoms: _121  and  _124
REMARK   53  A    between atoms: _124  and  _125
REMARK   54  A    between atoms: _125  and  _235
REMARK   55  A    between atoms: _126  and  _128
REMARK   56  A    between atoms: _128  and  _129
REMARK   57  A    between atoms: _128  and  _131
REMARK   58  A    between atoms: _131  and  _132
REMARK   59  A    between atoms: _132  and  _133
REMARK   60  A    between atoms: _138  and  _140
REMARK   61  A    between atoms: _140  and  _141
REMARK   62  A    between atoms: _143  and  _145
REMARK   63  A    between atoms: _145  and  _146
REMARK   64  A    between atoms: _145  and  _148
REMARK   65  A    between atoms: _148  and  _149
REMARK   66  A    between atoms: _152  and  _154
REMARK   67  A    between atoms: _154  and  _155
REMARK   68  A    between atoms: _154  and  _157
REMARK   69  A    between atoms: _157  and  _158
REMARK   70  A    between atoms: _160  and  _162
REMARK   71  A    between atoms: _162  and  _163
REMARK   72  A    between atoms: _165  and  _167
REMARK   73  A    between atoms: _167  and  _168
REMARK   74  A    between atoms: _170  and  _172
REMARK   75  A    between atoms: _172  and  _173
REMARK   76  A    between atoms: _172  and  _175
REMARK   77  A    between atoms: _175  and  _176
REMARK   78  A    between atoms: _179  and  _181
REMARK   79  A    between atoms: _181  and  _182
REMARK   80  A    between atoms: _181  and  _184
REMARK   81  A    between atoms: _187  and  _189
REMARK   82  A    between atoms: _189  and  _190
REMARK   83  A    between atoms: _189  and  _192
REMARK   84  A    between atoms: _192  and  _193
REMARK   85  A    between atoms: _195  and  _197
REMARK   86  A    between atoms: _197  and  _198
REMARK   87  A    between atoms: _197  and  _200
REMARK   88  A    between atoms: _200  and  _201
REMARK   89  A    between atoms: _211  and  _213
REMARK   90  A    between atoms: _213  and  _214
REMARK   91  A    between atoms: _216  and  _218
REMARK   92  A    between atoms: _218  and  _219
REMARK   93  A    between atoms: _218  and  _221
REMARK   94  A    between atoms: _221  and  _222
REMARK   95  A    between atoms: _224  and  _226
REMARK   96  A    between atoms: _226  and  _227
REMARK   97  A    between atoms: _229  and  _231
REMARK   98  A    between atoms: _231  and  _232
REMARK   99  A    between atoms: _231  and  _234
REMARK  100  A    between atoms: _234  and  _235
REMARK  101  A    between atoms: _236  and  _238
REMARK  102  A    between atoms: _238  and  _239
REMARK  103  A    between atoms: _242  and  _244
REMARK  104  A    between atoms: _244  and  _245
REMARK  105  A    between atoms: _244  and  _247
REMARK  106  A    between atoms: _247  and  _248
REMARK  107  A    between atoms: _248  and  _249
REMARK  108  A    between atoms: _254  and  _256
REMARK  109  A    between atoms: _256  and  _257
REMARK  110  A    between atoms: _256  and  _259
REMARK  111  A    between atoms: _259  and  _260
REMARK  112  A    between atoms: _260  and  _261
REMARK  113  A    between atoms: _261  and  _262
REMARK  114  A    between atoms: _262  and  _263
REMARK  115  A    between atoms: _268  and  _269
REMARK  116  A    between atoms: _274  and  _276
REMARK  117  A    between atoms: _276  and  _277
REMARK  118  A    between atoms: _279  and  _281
REMARK  119  A    between atoms: _281  and  _282
REMARK  120  A    between atoms: _281  and  _284
REMARK  121  A    between atoms: _287  and  _289
REMARK  122  A    between atoms: _289  and  _290
REMARK  123  A    between atoms: _289  and  _292
REMARK  124  A    between atoms: _292  and  _293
REMARK  125  A    between atoms: _298  and  _299
REMARK                            x       y       z     vdW  Elec       q    Type
REMARK                         _______ _______ _______ _____ _____    ______ ____
ROOT
ATOM      1  CA  ASP A   1      10.197  14.037  21.113  0.00  0.00    +0.144 C 
ENDROOT
BRANCH   1   2
ATOM      2  N   ASP A   1      11.341  13.867  20.213  0.00  0.00    -0.239 NA
ATOM      3  H   ASP A   1      11.168  13.570  19.231  0.00  0.00    +0.142 HD
ENDBRANCH   1   2
BRANCH   1   4
ATOM      4  C   ASP A   1       9.999  12.805  21.984  0.00  0.00    +0.225 C 
ATOM      5  O   ASP A   1       9.097  11.968  21.764  0.00  0.00    -0.287 OA
ENDBRANCH   1   4
BRANCH   1   6
ATOM      6  CB  ASP A   1       8.941  14.365  20.309  0.00  0.00    +0.139 C 
BRANCH   6   7
ATOM      7  CG  ASP A   1       7.800  14.862  21.177  0.00  0.00    +0.367 C 
ATOM      8  OD2 ASP A   1       8.007  15.145  22.390  0.00  0.00    -0.246 OA
ATOM      9  OD1 ASP A   1       6.676  14.954  20.629  0.00  0.00    -0.246 OA
ENDBRANCH   6   7
ENDBRANCH   1   6
TORSDOF 4
REMARK  Name = ../refined-set-2016/3gy7/3gy7_pocket.pdb
REMARK  125 active torsions:
REMARK  status: ('A' for Active; 'I' for Inactive)
REMARK    1  A    between atoms: _1  and  _5
REMARK    2  A    between atoms: _5  and  _6
REMARK    3  A    between atoms: _5  and  _8
REMARK    4  A    between atoms: _8  and  _9
REMARK    5  A    between atoms: _12  and  _14
REMARK    6  A    between atoms: _14  and  _15
REMARK    7  A    between atoms: _14  and  _17
REMARK    8  A    between atoms: _20  and  _22
REMARK    9  A    between atoms: _22  and  _23
REMARK   10  A    between atoms: _22  and  _25
REMARK   11  A    between atoms: _25  and  _26
REMARK   12  A    between atoms: _31  and  _33
REMARK   13  A    between atoms: _33  and  _34
REMARK   14  A    between atoms: _33  and  _36
REMARK   15  A    between atoms: _36  and  _37
REMARK   16  A    between atoms: _40  and  _42
REMARK   17  A    between atoms: _42  and  _43
REMARK   18  A    between atoms: _42  and  _45
REMARK   19  A    between atoms: _45  and  _46
REMARK   20  A    between atoms: _49  and  _51
REMARK   21  A    between atoms: _51  and  _52
REMARK   22  A    between atoms: _51  and  _54
REMARK   23  A    between atoms: _54  and  _55
REMARK   24  A    between atoms: _58  and  _60
REMARK   25  A    between atoms: _60  and  _61
REMARK   26  A    between atoms: _60  and  _63
REMARK   27  A    between atoms: _63  and  _64
REMARK   28  A    between atoms: _69  and  _71
REMARK   29  A    between atoms: _71  and  _72
REMARK   30  A    between atoms: _71  and  _74
REMARK   31  A    between atoms: _74  and  _75
REMARK   32  A    between atoms: _80  and  _81
REMARK   33  A    between atoms: _83  and  _85
REMARK   34  A    between atoms: _85  and  _86
REMARK   35  A    between atoms: _89  and  _91
REMARK   36  A    between atoms: _91  and  _92
REMARK   37  A    between atoms: _91  and  _94
REMARK   38  A    between atoms: _94  and  _95
REMARK   39  A    between atoms: _95  and  _96
REMARK   40  A    between atoms: _96  and  _97
REMARK   41  A    between atoms: _97  and  _98
REMARK   42  A    between atoms: _102  and  _104
REMARK   43  A    between atoms: _104  and  _105
REMARK   44  A    between atoms: _104  and  _107
REMARK   45  A    between atoms: _107  and  _108
REMARK   46  A    between atoms: _111  and  _113
REMARK   47  A    between atoms: _113  and  _114
REMARK   48  A    between atoms: _113  and  _116
REMARK   49  A    between atoms: _116  and  _117
REMARK   50  A    between atoms: _119  and  _121
REMARK   51  A    between atoms: _121  and  _122
REMARK   52  A    between atoms: _121  and  _124
REMARK   53  A    between atoms: _124  and  _125
REMARK   54  A    between atoms: _125  and  _235
REMARK   55  A    between atoms: _126  and  _128
REMARK   56  A    between atoms: _128  and  _129
REMARK   57  A    between atoms: _128  and  _131
REMARK   58  A    between atoms: _131  and  _132
REMARK   59  A    between atoms: _132  and  _133
REMARK   60  A    between atoms: _138  and  _140
REMARK   61  A    between atoms: _140  and  _141
REMARK   62  A    between atoms: _143  and  _145
REMARK   63  A    between atoms: _145  and  _146
REMARK   64  A    between atoms: _145  and  _148
REMARK   65  A    between atoms: _148  and  _149
REMARK   66  A    between atoms: _152  and  _154
REMARK   67  A    between atoms: _154  and  _155
REMARK   68  A    between atoms: _154  and  _157
REMARK   69  A    between atoms: _157  and  _158
REMARK   70  A    between atoms: _160  and  _162
REMARK   71  A    between atoms: _162  and  _163
REMARK   72  A    between atoms: _165  and  _167
REMARK   73  A    between atoms: _167  and  _168
REMARK   74  A    between atoms: _170  and  _172
REMARK   75  A    between atoms: _172  and  _173
REMARK   76  A    between atoms: _172  and  _175
REMARK   77  A    between atoms: _175  and  _176
REMARK   78  A    between atoms: _179  and  _181
REMARK   79  A    between atoms: _181  and  _182
REMARK   80  A    between atoms: _181  and  _184
REMARK   81  A    between atoms: _187  and  _189
REMARK   82  A    between atoms: _189  and  _190
REMARK   83  A    between atoms: _189  and  _192
REMARK   84  A    between atoms: _192  and  _193
REMARK   85  A    between atoms: _195  and  _197
REMARK   86  A    between atoms: _197  and  _198
REMARK   87  A    between atoms: _197  and  _200
REMARK   88  A    between atoms: _200  and  _201
REMARK   89  A    between atoms: _211  and  _213
REMARK   90  A    between atoms: _213  and  _214
REMARK   91  A    between atoms: _216  and  _218
REMARK   92  A    between atoms: _218  and  _219
REMARK   93  A    between atoms: _218  and  _221
REMARK   94  A    between atoms: _221  and  _222
REMARK   95  A    between atoms: _224  and  _226
REMARK   96  A    between atoms: _226  and  _227
REMARK   97  A    between atoms: _229  and  _231
REMARK   98  A    between atoms: _231  and  _232
REMARK   99  A    between atoms: _231  and  _234
REMARK  100  A    between atoms: _234  and  _235
REMARK  101  A    between atoms: _236  and  _238
REMARK  102  A    between atoms: _238  and  _239
REMARK  103  A    between atoms: _242  and  _244
REMARK  104  A    between atoms: _244  and  _245
REMARK  105  A    between atoms: _244  and  _247
REMARK  106  A    between atoms: _247  and  _248
REMARK  107  A    between atoms: _248  and  _249
REMARK  108  A    between atoms: _254  and  _256
REMARK  109  A    between atoms: _256  and  _257
REMARK  110  A    between atoms: _256  and  _259
REMARK  111  A    between atoms: _259  and  _260
REMARK  112  A    between atoms: _260  and  _261
REMARK  113  A    between atoms: _261  and  _262
REMARK  114  A    between atoms: _262  and  _263
REMARK  115  A    between atoms: _268  and  _269
REMARK  116  A    between atoms: _274  and  _276
REMARK  117  A    between atoms: _276  and  _277
REMARK  118  A    between atoms: _279  and  _281
REMARK  119  A    between atoms: _281  and  _282
REMARK  120  A    between atoms: _281  and  _284
REMARK  121  A    between atoms: _287  and  _289
REMARK  122  A    between atoms: _289  and  _290
REMARK  123  A    between atoms: _289  and  _292
REMARK  124  A    between atoms: _292  and  _293
REMARK  125  A    between atoms: _298  and  _299
REMARK                            x       y       z     vdW  Elec       q    Type
REMARK                         _______ _______ _______ _____ _____    ______ ____
ROOT
ATOM      1  CA  ILE A   1      -2.014   2.979  18.795  0.00  0.00    +0.133 C 
ENDROOT
BRANCH   1   2
ATOM      2  N   ILE A   1      -2.163   1.641  18.225  0.00  0.00    -0.239 NA
ATOM      3  H   ILE A   1      -2.980   1.450  17.611  0.00  0.00    +0.142 HD
ENDBRANCH   1   2
BRANCH   1   4
ATOM      4  C   ILE A   1      -3.179   3.164  19.762  0.00  0.00    +0.224 C 
ATOM      5  O   ILE A   1      -4.299   2.770  19.468  0.00  0.00    -0.287 OA
ENDBRANCH   1   4
BRANCH   1   6
ATOM      6  CB  ILE A   1      -2.045   4.071  17.692  0.00  0.00    +0.023 C 
ATOM      7  CG2 ILE A   1      -1.727   5.454  18.294  0.00  0.00    +0.002 C 
BRANCH   6   8
ATOM      8  CG1 ILE A   1      -1.027   3.744  16.594  0.00  0.00    +0.002 C 
ATOM      9  CD1 ILE A   1      -1.090   4.648  15.368  0.00  0.00    +0.000 C 
ENDBRANCH   6   8
ENDBRANCH   1   6
TORSDOF 4
REMARK  Name = ../refined-set-2016/3gy7/3gy7_pocket.pdb
REMARK  125 active torsions:
REMARK  status: ('A' for Active; 'I' for Inactive)
REMARK    1  A    between atoms: _1  and  _5
REMARK    2  A    between atoms: _5  and  _6
REMARK    3  A    between atoms: _5  and  _8
REMARK    4  A    between atoms: _8  and  _9
REMARK    5  A    between atoms: _12  and  _14
REMARK    6  A    between atoms: _14  and  _15
REMARK    7  A    between atoms: _14  and  _17
REMARK    8  A    between atoms: _20  and  _22
REMARK    9  A    between atoms: _22  and  _23
REMARK   10  A    between atoms: _22  and  _25
REMARK   11  A    between atoms: _25  and  _26
REMARK   12  A    between atoms: _31  and  _33
REMARK   13  A    between atoms: _33  and  _34
REMARK   14  A    between atoms: _33  and  _36
REMARK   15  A    between atoms: _36  and  _37
REMARK   16  A    between atoms: _40  and  _42
REMARK   17  A    between atoms: _42  and  _43
REMARK   18  A    between atoms: _42  and  _45
REMARK   19  A    between atoms: _45  and  _46
REMARK   20  A    between atoms: _49  and  _51
REMARK   21  A    between atoms: _51  and  _52
REMARK   22  A    between atoms: _51  and  _54
REMARK   23  A    between atoms: _54  and  _55
REMARK   24  A    between atoms: _58  and  _60
REMARK   25  A    between atoms: _60  and  _61
REMARK   26  A    between atoms: _60  and  _63
REMARK   27  A    between atoms: _63  and  _64
REMARK   28  A    between atoms: _69  and  _71
REMARK   29  A    between atoms: _71  and  _72
REMARK   30  A    between atoms: _71  and  _74
REMARK   31  A    between atoms: _74  and  _75
REMARK   32  A    between atoms: _80  and  _81
REMARK   33  A    between atoms: _83  and  _85
REMARK   34  A    between atoms: _85  and  _86
REMARK   35  A    between atoms: _89  and  _91
REMARK   36  A    between atoms: _91  and  _92
REMARK   37  A    between atoms: _91  and  _94
REMARK   38  A    between atoms: _94  and  _95
REMARK   39  A    between atoms: _95  and  _96
REMARK   40  A    between atoms: _96  and  _97
REMARK   41  A    between atoms: _97  and  _98
REMARK   42  A    between atoms: _102  and  _104
REMARK   43  A    between atoms: _104  and  _105
REMARK   44  A    between atoms: _104  and  _107
REMARK   45  A    between atoms: _107  and  _108
REMARK   46  A    between atoms: _111  and  _113
REMARK   47  A    between atoms: _113  and  _114
REMARK   48  A    between atoms: _113  and  _116
REMARK   49  A    between atoms: _116  and  _117
REMARK   50  A    between atoms: _119  and  _121
REMARK   51  A    between atoms: _121  and  _122
REMARK   52  A    between atoms: _121  and  _124
REMARK   53  A    between atoms: _124  and  _125
REMARK   54  A    between atoms: _125  and  _235
REMARK   55  A    between atoms: _126  and  _128
REMARK   56  A    between atoms: _128  and  _129
REMARK   57  A    between atoms: _128  and  _131
REMARK   58  A    between atoms: _131  and  _132
REMARK   59  A    between atoms: _132  and  _133
REMARK   60  A    between atoms: _138  and  _140
REMARK   61  A    between atoms: _140  and  _141
REMARK   62  A    between atoms: _143  and  _145
REMARK   63  A    between atoms: _145  and  _146
REMARK   64  A    between atoms: _145  and  _148
REMARK   65  A    between atoms: _148  and  _149
REMARK   66  A    between atoms: _152  and  _154
REMARK   67  A    between atoms: _154  and  _155
REMARK   68  A    between atoms: _154  and  _157
REMARK   69  A    between atoms: _157  and  _158
REMARK   70  A    between atoms: _160  and  _162
REMARK   71  A    between atoms: _162  and  _163
REMARK   72  A    between atoms: _165  and  _167
REMARK   73  A    between atoms: _167  and  _168
REMARK   74  A    between atoms: _170  and  _172
REMARK   75  A    between atoms: _172  and  _173
REMARK   76  A    between atoms: _172  and  _175
REMARK   77  A    between atoms: _175  and  _176
REMARK   78  A    between atoms: _179  and  _181
REMARK   79  A    between atoms: _181  and  _182
REMARK   80  A    between atoms: _181  and  _184
REMARK   81  A    between atoms: _187  and  _189
REMARK   82  A    between atoms: _189  and  _190
REMARK   83  A    between atoms: _189  and  _192
REMARK   84  A    between atoms: _192  and  _193
REMARK   85  A    between atoms: _195  and  _197
REMARK   86  A    between atoms: _197  and  _198
REMARK   87  A    between atoms: _197  and  _200
REMARK   88  A    between atoms: _200  and  _201
REMARK   89  A    between atoms: _211  and  _213
REMARK   90  A    between atoms: _213  and  _214
REMARK   91  A    between atoms: _216  and  _218
REMARK   92  A    between atoms: _218  and  _219
REMARK   93  A    between atoms: _218  and  _221
REMARK   94  A    between atoms: _221  and  _222
REMARK   95  A    between atoms: _224  and  _226
REMARK   96  A    between atoms: _226  and  _227
REMARK   97  A    between atoms: _229  and  _231
REMARK   98  A    between atoms: _231  and  _232
REMARK   99  A    between atoms: _231  and  _234
REMARK  100  A    between atoms: _234  and  _235
REMARK  101  A    between atoms: _236  and  _238
REMARK  102  A    between atoms: _238  and  _239
REMARK  103  A    between atoms: _242  and  _244
REMARK  104  A    between atoms: _244  and  _245
REMARK  105  A    between atoms: _244  and  _247
REMARK  106  A    between atoms: _247  and  _248
REMARK  107  A    between atoms: _248  and  _249
REMARK  108  A    between atoms: _254  and  _256
REMARK  109  A    between atoms: _256  and  _257
REMARK  110  A    between atoms: _256  and  _259
REMARK  111  A    between atoms: _259  and  _260
REMARK  112  A    between atoms: _260  and  _261
REMARK  113  A    between atoms: _261  and  _262
REMARK  114  A    between atoms: _262  and  _263
REMARK  115  A    between atoms: _268  and  _269
REMARK  116  A    between atoms: _274  and  _276
REMARK  117  A    between atoms: _276  and  _277
REMARK  118  A    between atoms: _279  and  _281
REMARK  119  A    between atoms: _281  and  _282
REMARK  120  A    between atoms: _281  and  _284
REMARK  121  A    between atoms: _287  and  _289
REMARK  122  A    between atoms: _289  and  _290
REMARK  123  A    between atoms: _289  and  _292
REMARK  124  A    between atoms: _292  and  _293
REMARK  125  A    between atoms: _298  and  _299
REMARK                            x       y       z     vdW  Elec       q    Type
REMARK                         _______ _______ _______ _____ _____    ______ ____
ROOT
ATOM      1  CB  ASN A   1      -9.725  14.836  20.690  0.00  0.00    +0.110 C 
ENDROOT
BRANCH   1   2
ATOM      2  CG  ASN A   1     -10.911  15.527  20.043  0.00  0.00    +0.221 C 
ATOM      3  OD1 ASN A   1     -12.058  15.079  20.118  0.00  0.00    -0.275 OA
ATOM      4  ND2 ASN A   1     -10.623  16.657  19.408  0.00  0.00    -0.329 N 
ATOM      5 HD21 ASN A   1      -9.641  16.997  19.370  0.00  0.00    +0.145 HD
ATOM      6 HD22 ASN A   1     -11.380  17.202  18.948  0.00  0.00    +0.145 HD
ENDBRANCH   1   2
BRANCH   1   7
ATOM      7  CA  ASN A   1     -10.069  13.495  21.344  0.00  0.00    +0.142 C 
BRANCH   7   8
ATOM      8  N   ASN A   1      -8.882  13.092  22.099  0.00  0.00    -0.239 NA
ATOM      9  H   ASN A   1      -8.101  13.773  22.191  0.00  0.00    +0.142 HD
ENDBRANCH   7   8
BRANCH   7  10
ATOM     10  C   ASN A   1     -10.452  12.449  20.292  0.00  0.00    +0.225 C 
ATOM     11  O   ASN A   1      -9.568  11.889  19.622  0.00  0.00    -0.287 OA
ENDBRANCH   7  10
ENDBRANCH   1   7
TORSDOF 4
REMARK  Name = ../refined-set-2016/3gy7/3gy7_pocket.pdb
REMARK  125 active torsions:
REMARK  status: ('A' for Active; 'I' for Inactive)
REMARK    1  A    between atoms: _1  and  _5
REMARK    2  A    between atoms: _5  and  _6
REMARK    3  A    between atoms: _5  and  _8
REMARK    4  A    between atoms: _8  and  _9
REMARK    5  A    between atoms: _12  and  _14
REMARK    6  A    between atoms: _14  and  _15
REMARK    7  A    between atoms: _14  and  _17
REMARK    8  A    between atoms: _20  and  _22
REMARK    9  A    between atoms: _22  and  _23
REMARK   10  A    between atoms: _22  and  _25
REMARK   11  A    between atoms: _25  and  _26
REMARK   12  A    between atoms: _31  and  _33
REMARK   13  A    between atoms: _33  and  _34
REMARK   14  A    between atoms: _33  and  _36
REMARK   15  A    between atoms: _36  and  _37
REMARK   16  A    between atoms: _40  and  _42
REMARK   17  A    between atoms: _42  and  _43
REMARK   18  A    between atoms: _42  and  _45
REMARK   19  A    between atoms: _45  and  _46
REMARK   20  A    between atoms: _49  and  _51
REMARK   21  A    between atoms: _51  and  _52
REMARK   22  A    between atoms: _51  and  _54
REMARK   23  A    between atoms: _54  and  _55
REMARK   24  A    between atoms: _58  and  _60
REMARK   25  A    between atoms: _60  and  _61
REMARK   26  A    between atoms: _60  and  _63
REMARK   27  A    between atoms: _63  and  _64
REMARK   28  A    between atoms: _69  and  _71
REMARK   29  A    between atoms: _71  and  _72
REMARK   30  A    between atoms: _71  and  _74
REMARK   31  A    between atoms: _74  and  _75
REMARK   32  A    between atoms: _80  and  _81
REMARK   33  A    between atoms: _83  and  _85
REMARK   34  A    between atoms: _85  and  _86
REMARK   35  A    between atoms: _89  and  _91
REMARK   36  A    between atoms: _91  and  _92
REMARK   37  A    between atoms: _91  and  _94
REMARK   38  A    between atoms: _94  and  _95
REMARK   39  A    between atoms: _95  and  _96
REMARK   40  A    between atoms: _96  and  _97
REMARK   41  A    between atoms: _97  and  _98
REMARK   42  A    between atoms: _102  and  _104
REMARK   43  A    between atoms: _104  and  _105
REMARK   44  A    between atoms: _104  and  _107
REMARK   45  A    between atoms: _107  and  _108
REMARK   46  A    between atoms: _111  and  _113
REMARK   47  A    between atoms: _113  and  _114
REMARK   48  A    between atoms: _113  and  _116
REMARK   49  A    between atoms: _116  and  _117
REMARK   50  A    between atoms: _119  and  _121
REMARK   51  A    between atoms: _121  and  _122
REMARK   52  A    between atoms: _121  and  _124
REMARK   53  A    between atoms: _124  and  _125
REMARK   54  A    between atoms: _125  and  _235
REMARK   55  A    between atoms: _126  and  _128
REMARK   56  A    between atoms: _128  and  _129
REMARK   57  A    between atoms: _128  and  _131
REMARK   58  A    between atoms: _131  and  _132
REMARK   59  A    between atoms: _132  and  _133
REMARK   60  A    between atoms: _138  and  _140
REMARK   61  A    between atoms: _140  and  _141
REMARK   62  A    between atoms: _143  and  _145
REMARK   63  A    between atoms: _145  and  _146
REMARK   64  A    between atoms: _145  and  _148
REMARK   65  A    between atoms: _148  and  _149
REMARK   66  A    between atoms: _152  and  _154
REMARK   67  A    between atoms: _154  and  _155
REMARK   68  A    between atoms: _154  and  _157
REMARK   69  A    between atoms: _157  and  _158
REMARK   70  A    between atoms: _160  and  _162
REMARK   71  A    between atoms: _162  and  _163
REMARK   72  A    between atoms: _165  and  _167
REMARK   73  A    between atoms: _167  and  _168
REMARK   74  A    between atoms: _170  and  _172
REMARK   75  A    between atoms: _172  and  _173
REMARK   76  A    between atoms: _172  and  _175
REMARK   77  A    between atoms: _175  and  _176
REMARK   78  A    between atoms: _179  and  _181
REMARK   79  A    between atoms: _181  and  _182
REMARK   80  A    between atoms: _181  and  _184
REMARK   81  A    between atoms: _187  and  _189
REMARK   82  A    between atoms: _189  and  _190
REMARK   83  A    between atoms: _189  and  _192
REMARK   84  A    between atoms: _192  and  _193
REMARK   85  A    between atoms: _195  and  _197
REMARK   86  A    between atoms: _197  and  _198
REMARK   87  A    between atoms: _197  and  _200
REMARK   88  A    between atoms: _200  and  _201
REMARK   89  A    between atoms: _211  and  _213
REMARK   90  A    between atoms: _213  and  _214
REMARK   91  A    between atoms: _216  and  _218
REMARK   92  A    between atoms: _218  and  _219
REMARK   93  A    between atoms: _218  and  _221
REMARK   94  A    between atoms: _221  and  _222
REMARK   95  A    between atoms: _224  and  _226
REMARK   96  A    between atoms: _226  and  _227
REMARK   97  A    between atoms: _229  and  _231
REMARK   98  A    between atoms: _231  and  _232
REMARK   99  A    between atoms: _231  and  _234
REMARK  100  A    between atoms: _234  and  _235
REMARK  101  A    between atoms: _236  and  _238
REMARK  102  A    between atoms: _238  and  _239
REMARK  103  A    between atoms: _242  and  _244
REMARK  104  A    between atoms: _244  and  _245
REMARK  105  A    between atoms: _244  and  _247
REMARK  106  A    between atoms: _247  and  _248
REMARK  107  A    between atoms: _248  and  _249
REMARK  108  A    between atoms: _254  and  _256
REMARK  109  A    between atoms: _256  and  _257
REMARK  110  A    between atoms: _256  and  _259
REMARK  111  A    between atoms: _259  and  _260
REMARK  112  A    between atoms: _260  and  _261
REMARK  113  A    between atoms: _261  and  _262
REMARK  114  A    between atoms: _262  and  _263
REMARK  115  A    between atoms: _268  and  _269
REMARK  116  A    between atoms: _274  and  _276
REMARK  117  A    between atoms: _276  and  _277
REMARK  118  A    between atoms: _279  and  _281
REMARK  119  A    between atoms: _281  and  _282
REMARK  120  A    between atoms: _281  and  _284
REMARK  121  A    between atoms: _287  and  _289
REMARK  122  A    between atoms: _289  and  _290
REMARK  123  A    between atoms: _289  and  _292
REMARK  124  A    between atoms: _292  and  _293
REMARK  125  A    between atoms: _298  and  _299
REMARK                            x       y       z     vdW  Elec       q    Type
REMARK                         _______ _______ _______ _____ _____    ______ ____
ROOT
ATOM      1  CG  TYR A   1       3.702  16.172   7.633  0.00  0.00    -0.020 A 
ATOM      2  CD2 TYR A   1       2.877  17.169   8.157  0.00  0.00    -0.001 A 
ATOM      3  CE2 TYR A   1       1.690  16.862   8.806  0.00  0.00    +0.036 A 
ATOM      4  CZ  TYR A   1       1.325  15.536   8.963  0.00  0.00    +0.134 A 
ATOM      5  CE1 TYR A   1       2.133  14.514   8.469  0.00  0.00    +0.036 A 
ATOM      6  CD1 TYR A   1       3.331  14.839   7.816  0.00  0.00    -0.001 A 
ENDROOT
BRANCH   4   7
ATOM      7  OH  TYR A   1       0.149  15.249   9.625  0.00  0.00    -0.506 OA
ATOM      8  HH  TYR A   1       0.022  14.268   9.659  0.00  0.00    +0.292 HD
ENDBRANCH   4   7
BRANCH   1   9
ATOM      9  CB  TYR A   1       5.001  16.535   6.945  0.00  0.00    +0.051 C 
BRANCH   9  10
ATOM     10  CA  TYR A   1       4.855  17.032   5.508  0.00  0.00    +0.137 C 
BRANCH  10  11
ATOM     11  N   TYR A   1       4.354  15.962   4.658  0.00  0.00    -0.239 NA
ATOM     12  H   TYR A   1       4.991  15.176   4.416  0.00  0.00    +0.142 HD
ENDBRANCH  10  11
BRANCH  10  13
ATOM     13  C   TYR A   1       6.218  17.504   5.023  0.00  0.00    +0.224 C 
ATOM     14  O   TYR A   1       7.229  17.220   5.668  0.00  0.00    -0.287 OA
ENDBRANCH  10  13
ENDBRANCH   9  10
ENDBRANCH   1   9
TORSDOF 5
REMARK  Name = ../refined-set-2016/3gy7/3gy7_pocket.pdb
REMARK  125 active torsions:
REMARK  status: ('A' for Active; 'I' for Inactive)
REMARK    1  A    between atoms: _1  and  _5
REMARK    2  A    between atoms: _5  and  _6
REMARK    3  A    between atoms: _5  and  _8
REMARK    4  A    between atoms: _8  and  _9
REMARK    5  A    between atoms: _12  and  _14
REMARK    6  A    between atoms: _14  and  _15
REMARK    7  A    between atoms: _14  and  _17
REMARK    8  A    between atoms: _20  and  _22
REMARK    9  A    between atoms: _22  and  _23
REMARK   10  A    between atoms: _22  and  _25
REMARK   11  A    between atoms: _25  and  _26
REMARK   12  A    between atoms: _31  and  _33
REMARK   13  A    between atoms: _33  and  _34
REMARK   14  A    between atoms: _33  and  _36
REMARK   15  A    between atoms: _36  and  _37
REMARK   16  A    between atoms: _40  and  _42
REMARK   17  A    between atoms: _42  and  _43
REMARK   18  A    between atoms: _42  and  _45
REMARK   19  A    between atoms: _45  and  _46
REMARK   20  A    between atoms: _49  and  _51
REMARK   21  A    between atoms: _51  and  _52
REMARK   22  A    between atoms: _51  and  _54
REMARK   23  A    between atoms: _54  and  _55
REMARK   24  A    between atoms: _58  and  _60
REMARK   25  A    between atoms: _60  and  _61
REMARK   26  A    between atoms: _60  and  _63
REMARK   27  A    between atoms: _63  and  _64
REMARK   28  A    between atoms: _69  and  _71
REMARK   29  A    between atoms: _71  and  _72
REMARK   30  A    between atoms: _71  and  _74
REMARK   31  A    between atoms: _74  and  _75
REMARK   32  A    between atoms: _80  and  _81
REMARK   33  A    between atoms: _83  and  _85
REMARK   34  A    between atoms: _85  and  _86
REMARK   35  A    between atoms: _89  and  _91
REMARK   36  A    between atoms: _91  and  _92
REMARK   37  A    between atoms: _91  and  _94
REMARK   38  A    between atoms: _94  and  _95
REMARK   39  A    between atoms: _95  and  _96
REMARK   40  A    between atoms: _96  and  _97
REMARK   41  A    between atoms: _97  and  _98
REMARK   42  A    between atoms: _102  and  _104
REMARK   43  A    between atoms: _104  and  _105
REMARK   44  A    between atoms: _104  and  _107
REMARK   45  A    between atoms: _107  and  _108
REMARK   46  A    between atoms: _111  and  _113
REMARK   47  A    between atoms: _113  and  _114
REMARK   48  A    between atoms: _113  and  _116
REMARK   49  A    between atoms: _116  and  _117
REMARK   50  A    between atoms: _119  and  _121
REMARK   51  A    between atoms: _121  and  _122
REMARK   52  A    between atoms: _121  and  _124
REMARK   53  A    between atoms: _124  and  _125
REMARK   54  A    between atoms: _125  and  _235
REMARK   55  A    between atoms: _126  and  _128
REMARK   56  A    between atoms: _128  and  _129
REMARK   57  A    between atoms: _128  and  _131
REMARK   58  A    between atoms: _131  and  _132
REMARK   59  A    between atoms: _132  and  _133
REMARK   60  A    between atoms: _138  and  _140
REMARK   61  A    between atoms: _140  and  _141
REMARK   62  A    between atoms: _143  and  _145
REMARK   63  A    between atoms: _145  and  _146
REMARK   64  A    between atoms: _145  and  _148
REMARK   65  A    between atoms: _148  and  _149
REMARK   66  A    between atoms: _152  and  _154
REMARK   67  A    between atoms: _154  and  _155
REMARK   68  A    between atoms: _154  and  _157
REMARK   69  A    between atoms: _157  and  _158
REMARK   70  A    between atoms: _160  and  _162
REMARK   71  A    between atoms: _162  and  _163
REMARK   72  A    between atoms: _165  and  _167
REMARK   73  A    between atoms: _167  and  _168
REMARK   74  A    between atoms: _170  and  _172
REMARK   75  A    between atoms: _172  and  _173
REMARK   76  A    between atoms: _172  and  _175
REMARK   77  A    between atoms: _175  and  _176
REMARK   78  A    between atoms: _179  and  _181
REMARK   79  A    between atoms: _181  and  _182
REMARK   80  A    between atoms: _181  and  _184
REMARK   81  A    between atoms: _187  and  _189
REMARK   82  A    between atoms: _189  and  _190
REMARK   83  A    between atoms: _189  and  _192
REMARK   84  A    between atoms: _192  and  _193
REMARK   85  A    between atoms: _195  and  _197
REMARK   86  A    between atoms: _197  and  _198
REMARK   87  A    between atoms: _197  and  _200
REMARK   88  A    between atoms: _200  and  _201
REMARK   89  A    between atoms: _211  and  _213
REMARK   90  A    between atoms: _213  and  _214
REMARK   91  A    between atoms: _216  and  _218
REMARK   92  A    between atoms: _218  and  _219
REMARK   93  A    between atoms: _218  and  _221
REMARK   94  A    between atoms: _221  and  _222
REMARK   95  A    between atoms: _224  and  _226
REMARK   96  A    between atoms: _226  and  _227
REMARK   97  A    between atoms: _229  and  _231
REMARK   98  A    between atoms: _231  and  _232
REMARK   99  A    between atoms: _231  and  _234
REMARK  100  A    between atoms: _234  and  _235
REMARK  101  A    between atoms: _236  and  _238
REMARK  102  A    between atoms: _238  and  _239
REMARK  103  A    between atoms: _242  and  _244
REMARK  104  A    between atoms: _244  and  _245
REMARK  105  A    between atoms: _244  and  _247
REMARK  106  A    between atoms: _247  and  _248
REMARK  107  A    between atoms: _248  and  _249
REMARK  108  A    between atoms: _254  and  _256
REMARK  109  A    between atoms: _256  and  _257
REMARK  110  A    between atoms: _256  and  _259
REMARK  111  A    between atoms: _259  and  _260
REMARK  112  A    between atoms: _260  and  _261
REMARK  113  A    between atoms: _261  and  _262
REMARK  114  A    between atoms: _262  and  _263
REMARK  115  A    between atoms: _268  and  _269
REMARK  116  A    between atoms: _274  and  _276
REMARK  117  A    between atoms: _276  and  _277
REMARK  118  A    between atoms: _279  and  _281
REMARK  119  A    between atoms: _281  and  _282
REMARK  120  A    between atoms: _281  and  _284
REMARK  121  A    between atoms: _287  and  _289
REMARK  122  A    between atoms: _289  and  _290
REMARK  123  A    between atoms: _289  and  _292
REMARK  124  A    between atoms: _292  and  _293
REMARK  125  A    between atoms: _298  and  _299
REMARK                            x       y       z     vdW  Elec       q    Type
REMARK                         _______ _______ _______ _____ _____    ______ ____
ROOT
ATOM      1  CA  ALA A   1       1.522   5.869  10.585  0.00  0.00    +0.133 C 
ATOM      2  CB  ALA A   1       1.734   5.035  11.834  0.00  0.00    +0.027 C 
ENDROOT
BRANCH   1   3
ATOM      3  N   ALA A   1       2.355   7.053  10.595  0.00  0.00    -0.239 NA
ATOM      4  H   ALA A   1       2.016   7.916  11.066  0.00  0.00    +0.142 HD
ENDBRANCH   1   3
BRANCH   1   5
ATOM      5  C   ALA A   1       0.087   6.326  10.484  0.00  0.00    +0.224 C 
ATOM      6  O   ALA A   1      -0.251   7.425  10.932  0.00  0.00    -0.287 OA
ENDBRANCH   1   5
TORSDOF 2
REMARK  Name = ../refined-set-2016/3gy7/3gy7_pocket.pdb
REMARK  125 active torsions:
REMARK  status: ('A' for Active; 'I' for Inactive)
REMARK    1  A    between atoms: _1  and  _5
REMARK    2  A    between atoms: _5  and  _6
REMARK    3  A    between atoms: _5  and  _8
REMARK    4  A    between atoms: _8  and  _9
REMARK    5  A    between atoms: _12  and  _14
REMARK    6  A    between atoms: _14  and  _15
REMARK    7  A    between atoms: _14  and  _17
REMARK    8  A    between atoms: _20  and  _22
REMARK    9  A    between atoms: _22  and  _23
REMARK   10  A    between atoms: _22  and  _25
REMARK   11  A    between atoms: _25  and  _26
REMARK   12  A    between atoms: _31  and  _33
REMARK   13  A    between atoms: _33  and  _34
REMARK   14  A    between atoms: _33  and  _36
REMARK   15  A    between atoms: _36  and  _37
REMARK   16  A    between atoms: _40  and  _42
REMARK   17  A    between atoms: _42  and  _43
REMARK   18  A    between atoms: _42  and  _45
REMARK   19  A    between atoms: _45  and  _46
REMARK   20  A    between atoms: _49  and  _51
REMARK   21  A    between atoms: _51  and  _52
REMARK   22  A    between atoms: _51  and  _54
REMARK   23  A    between atoms: _54  and  _55
REMARK   24  A    between atoms: _58  and  _60
REMARK   25  A    between atoms: _60  and  _61
REMARK   26  A    between atoms: _60  and  _63
REMARK   27  A    between atoms: _63  and  _64
REMARK   28  A    between atoms: _69  and  _71
REMARK   29  A    between atoms: _71  and  _72
REMARK   30  A    between atoms: _71  and  _74
REMARK   31  A    between atoms: _74  and  _75
REMARK   32  A    between atoms: _80  and  _81
REMARK   33  A    between atoms: _83  and  _85
REMARK   34  A    between atoms: _85  and  _86
REMARK   35  A    between atoms: _89  and  _91
REMARK   36  A    between atoms: _91  and  _92
REMARK   37  A    between atoms: _91  and  _94
REMARK   38  A    between atoms: _94  and  _95
REMARK   39  A    between atoms: _95  and  _96
REMARK   40  A    between atoms: _96  and  _97
REMARK   41  A    between atoms: _97  and  _98
REMARK   42  A    between atoms: _102  and  _104
REMARK   43  A    between atoms: _104  and  _105
REMARK   44  A    between atoms: _104  and  _107
REMARK   45  A    between atoms: _107  and  _108
REMARK   46  A    between atoms: _111  and  _113
REMARK   47  A    between atoms: _113  and  _114
REMARK   48  A    between atoms: _113  and  _116
REMARK   49  A    between atoms: _116  and  _117
REMARK   50  A    between atoms: _119  and  _121
REMARK   51  A    between atoms: _121  and  _122
REMARK   52  A    between atoms: _121  and  _124
REMARK   53  A    between atoms: _124  and  _125
REMARK   54  A    between atoms: _125  and  _235
REMARK   55  A    between atoms: _126  and  _128
REMARK   56  A    between atoms: _128  and  _129
REMARK   57  A    between atoms: _128  and  _131
REMARK   58  A    between atoms: _131  and  _132
REMARK   59  A    between atoms: _132  and  _133
REMARK   60  A    between atoms: _138  and  _140
REMARK   61  A    between atoms: _140  and  _141
REMARK   62  A    between atoms: _143  and  _145
REMARK   63  A    between atoms: _145  and  _146
REMARK   64  A    between atoms: _145  and  _148
REMARK   65  A    between atoms: _148  and  _149
REMARK   66  A    between atoms: _152  and  _154
REMARK   67  A    between atoms: _154  and  _155
REMARK   68  A    between atoms: _154  and  _157
REMARK   69  A    between atoms: _157  and  _158
REMARK   70  A    between atoms: _160  and  _162
REMARK   71  A    between atoms: _162  and  _163
REMARK   72  A    between atoms: _165  and  _167
REMARK   73  A    between atoms: _167  and  _168
REMARK   74  A    between atoms: _170  and  _172
REMARK   75  A    between atoms: _172  and  _173
REMARK   76  A    between atoms: _172  and  _175
REMARK   77  A    between atoms: _175  and  _176
REMARK   78  A    between atoms: _179  and  _181
REMARK   79  A    between atoms: _181  and  _182
REMARK   80  A    between atoms: _181  and  _184
REMARK   81  A    between atoms: _187  and  _189
REMARK   82  A    between atoms: _189  and  _190
REMARK   83  A    between atoms: _189  and  _192
REMARK   84  A    between atoms: _192  and  _193
REMARK   85  A    between atoms: _195  and  _197
REMARK   86  A    between atoms: _197  and  _198
REMARK   87  A    between atoms: _197  and  _200
REMARK   88  A    between atoms: _200  and  _201
REMARK   89  A    between atoms: _211  and  _213
REMARK   90  A    between atoms: _213  and  _214
REMARK   91  A    between atoms: _216  and  _218
REMARK   92  A    between atoms: _218  and  _219
REMARK   93  A    between atoms: _218  and  _221
REMARK   94  A    between atoms: _221  and  _222
REMARK   95  A    between atoms: _224  and  _226
REMARK   96  A    between atoms: _226  and  _227
REMARK   97  A    between atoms: _229  and  _231
REMARK   98  A    between atoms: _231  and  _232
REMARK   99  A    between atoms: _231  and  _234
REMARK  100  A    between atoms: _234  and  _235
REMARK  101  A    between atoms: _236  and  _238
REMARK  102  A    between atoms: _238  and  _239
REMARK  103  A    between atoms: _242  and  _244
REMARK  104  A    between atoms: _244  and  _245
REMARK  105  A    between atoms: _244  and  _247
REMARK  106  A    between atoms: _247  and  _248
REMARK  107  A    between atoms: _248  and  _249
REMARK  108  A    between atoms: _254  and  _256
REMARK  109  A    between atoms: _256  and  _257
REMARK  110  A    between atoms: _256  and  _259
REMARK  111  A    between atoms: _259  and  _260
REMARK  112  A    between atoms: _260  and  _261
REMARK  113  A    between atoms: _261  and  _262
REMARK  114  A    between atoms: _262  and  _263
REMARK  115  A    between atoms: _268  and  _269
REMARK  116  A    between atoms: _274  and  _276
REMARK  117  A    between atoms: _276  and  _277
REMARK  118  A    between atoms: _279  and  _281
REMARK  119  A    between atoms: _281  and  _282
REMARK  120  A    between atoms: _281  and  _284
REMARK  121  A    between atoms: _287  and  _289
REMARK  122  A    between atoms: _289  and  _290
REMARK  123  A    between atoms: _289  and  _292
REMARK  124  A    between atoms: _292  and  _293
REMARK  125  A    between atoms: _298  and  _299
REMARK                            x       y       z     vdW  Elec       q    Type
REMARK                         _______ _______ _______ _____ _____    ______ ____
ROOT
ATOM      1  CB  CYS A   8      -7.092  14.440  14.696  0.00  0.00    +0.098 C 
ENDROOT
BRANCH   1   2
ATOM      2  SG  CYS A   8      -6.435  15.421  16.042  0.00  0.00    -0.080 S 
BRANCH   2   3
ATOM      3  SG  TRP A   4      -7.566  14.803  17.627  0.00  0.00    -0.080 S 
BRANCH   3   4
ATOM      4  CB  TRP A   4      -6.854  13.200  18.083  0.00  0.00    +0.098 C 
BRANCH   4   5
ATOM      5  CA  TRP A   4      -5.328  13.180  18.278  0.00  0.00    +0.160 C 
BRANCH   5   6
ATOM      6  C   TRP A   4      -4.913  13.799  19.616  0.00  0.00    +0.242 C 
ATOM      7  O   TRP A   4      -4.218  13.167  20.409  0.00  0.00    -0.273 OA
ATOM      8  N   GLY A   5      -5.329  15.048  19.838  0.00  0.00    -0.297 N 
ATOM      9  H   GLY A   5      -5.916  15.525  19.124  0.00  0.00    +0.150 HD
BRANCH   8  10
ATOM     10  CA  GLY A   5      -4.977  15.752  21.058  0.00  0.00    +0.149 C 
BRANCH  10  11
ATOM     11  C   GLY A   5      -5.348  14.913  22.291  0.00  0.00    +0.241 C 
ATOM     12  N   SER A   6      -4.398  14.799  23.214  0.00  0.00    -0.295 N 
ATOM     13  H   SER A   6      -3.487  15.278  23.067  0.00  0.00    +0.150 HD
ATOM     14  O   GLY A   5      -6.447  14.366  22.391  0.00  0.00    -0.273 OA
BRANCH  12  15
ATOM     15  CA  SER A   6      -4.605  14.017  24.428  0.00  0.00    +0.176 C 
BRANCH  15  16
ATOM     16  C   SER A   6      -4.040  12.605  24.326  0.00  0.00    +0.243 C 
ATOM     17  O   SER A   6      -3.917  11.914  25.343  0.00  0.00    -0.273 OA
ATOM     18  N   GLY A   7      -3.730  12.172  23.102  0.00  0.00    -0.296 N 
ATOM     19  H   GLY A   7      -3.960  12.766  22.280  0.00  0.00    +0.150 HD
BRANCH  18  20
ATOM     20  CA  GLY A   7      -3.073  10.880  22.888  0.00  0.00    +0.160 C 
BRANCH  20  21
ATOM     21  C   GLY A   7      -1.558  11.001  22.984  0.00  0.00    +0.241 C 
ATOM     22  O   GLY A   7      -0.865   9.974  23.068  0.00  0.00    -0.273 OA
ATOM     23  N   CYS A   8      -1.055  12.234  22.930  0.00  0.00    -0.295 N 
ATOM     24  H   CYS A   8      -1.710  13.042  22.903  0.00  0.00    +0.150 HD
BRANCH  23  25
ATOM     25  CA  CYS A   8       0.397  12.495  22.907  0.00  0.00    +0.178 C 
BRANCH  25  26
ATOM     26  C   CYS A   8       1.125  11.751  24.002  0.00  0.00    +0.243 C 
ATOM     27  O   CYS A   8       0.635  11.657  25.130  0.00  0.00    -0.273 OA
ATOM     28  N   ALA A   9       2.291  11.206  23.645  0.00  0.00    -0.295 N 
ATOM     29  H   ALA A   9       2.611  11.294  22.659  0.00  0.00    +0.150 HD
BRANCH  28  30
ATOM     30  CA  ALA A   9       3.129  10.489  24.606  0.00  0.00    +0.176 C 
BRANCH  30  31
ATOM     31  C   ALA A   9       2.811   9.006  24.698  0.00  0.00    +0.243 C 
ATOM     32  O   ALA A   9       3.587   8.235  25.255  0.00  0.00    -0.273 OA
ATOM     33  N   GLN A  10       1.655   8.606  24.166  0.00  0.00    -0.296 N 
ATOM     34  H   GLN A  10       1.052   9.306  23.688  0.00  0.00    +0.150 HD
BRANCH  33  35
ATOM     35  CA  GLN A  10       1.209   7.218  24.233  0.00  0.00    +0.163 C 
BRANCH  35  36
ATOM     36  C   GLN A  10       1.876   6.310  23.220  0.00  0.00    +0.229 C 
ATOM     37  O   GLN A  10       2.653   6.750  22.383  0.00  0.00    -0.286 OA
ENDBRANCH  35  36
ENDBRANCH  33  35
ENDBRANCH  30  31
ENDBRANCH  28  30
ENDBRANCH  25  26
BRANCH  25  38
ATOM     38  CB  CYS A   8       0.692  13.983  23.044  0.00  0.00    +0.166 C 
BRANCH  38  39
ATOM     39  O   CYS A   8       0.300  14.659  21.877  0.00  0.00    -0.380 OA
ATOM     40  H   CYS A   8       0.495  15.625  21.975  0.00  0.00    +0.211 HD
ENDBRANCH  38  39
ENDBRANCH  25  38
ENDBRANCH  23  25
ENDBRANCH  20  21
BRANCH  20  41
ATOM     41  CB  GLY A   7      -3.421  10.286  21.516  0.00  0.00    +0.143 C 
BRANCH  41  42
ATOM     42  CG  GLY A   7      -4.875   9.852  21.397  0.00  0.00    +0.367 C 
ATOM     43  OD2 GLY A   7      -5.427   9.304  22.378  0.00  0.00    -0.246 OA
ATOM     44  OD1 GLY A   7      -5.452  10.051  20.298  0.00  0.00    -0.246 OA
ENDBRANCH  41  42
ENDBRANCH  20  41
ENDBRANCH  18  20
ENDBRANCH  15  16
ENDBRANCH  12  15
ENDBRANCH  10  11
BRANCH  10  45
ATOM     45  CB  GLY A   5      -5.637  17.136  21.077  0.00  0.00    +0.039 C 
BRANCH  45  46
ATOM     46  CG  GLY A   5      -4.954  18.176  20.141  0.00  0.00    +0.087 C 
BRANCH  46  47
ATOM     47  CD  GLY A   5      -5.258  18.008  18.639  0.00  0.00    +0.219 C 
ATOM     48  OE1 GLY A   5      -6.410  17.938  18.224  0.00  0.00    -0.275 OA
ATOM     49  NE2 GLY A   5      -4.213  17.987  17.826  0.00  0.00    -0.329 N 
ATOM     50 HE21 GLY A   5      -3.250  18.048  18.215  0.00  0.00    +0.145 HD
ATOM     51 HE22 GLY A   5      -4.355  17.909  16.799  0.00  0.00    +0.145 HD
ENDBRANCH  46  47
ENDBRANCH  45  46
ENDBRANCH  10  45
ENDBRANCH   8  10
ENDBRANCH   5   6
BRANCH   5  53
ATOM     52  C   SER A   3      -4.718  11.234  16.990  0.00  0.00    +0.243 C 
ATOM     53  N   TRP A   4      -4.861  11.806  18.183  0.00  0.00    -0.296 N 
ATOM     54  H   TRP A   4      -4.639  11.271  19.047  0.00  0.00    +0.150 HD
ATOM     55  O   SER A   3      -4.880  11.858  15.923  0.00  0.00    -0.273 OA
BRANCH  52  56
ATOM     56  CA  SER A   3      -4.355   9.743  16.983  0.00  0.00    +0.178 C 
BRANCH  56  59
ATOM     57  C   VAL A   2      -5.607   8.943  15.066  0.00  0.00    +0.241 C 
ATOM     58  O   VAL A   2      -6.630   8.791  15.735  0.00  0.00    -0.273 OA
ATOM     59  N   SER A   3      -4.432   9.235  15.614  0.00  0.00    -0.295 N 
ATOM     60  H   SER A   3      -3.559   9.101  15.064  0.00  0.00    +0.150 HD
BRANCH  57  61
ATOM     61  CA  VAL A   2      -5.653   8.835  13.543  0.00  0.00    +0.160 C 
BRANCH  61  63
ATOM     62  C   ILE A   1      -7.049   7.743  11.860  0.00  0.00    +0.238 C 
ATOM     63  N   VAL A   2      -6.894   8.171  13.117  0.00  0.00    -0.297 N 
ATOM     64  H   VAL A   2      -7.663   8.032  13.804  0.00  0.00    +0.150 HD
ATOM     65  O   ILE A   1      -6.142   7.765  11.039  0.00  0.00    -0.274 OA
BRANCH  62  66
ATOM     66  CA  ILE A   1      -8.421   7.202  11.455  0.00  0.00    +0.145 C 
BRANCH  66  67
ATOM     67  N   ILE A   1      -8.963   8.072  10.409  0.00  0.00    -0.238 NA
ATOM     68  H   ILE A   1      -8.328   8.414   9.660  0.00  0.00    +0.142 HD
ENDBRANCH  66  67
BRANCH  66  69
ATOM     69  CB  ILE A   1      -8.265   5.781  10.918  0.00  0.00    +0.026 C 
BRANCH  69  70
ATOM     70  CG  ILE A   1      -9.575   5.006  10.834  0.00  0.00    -0.000 C 
BRANCH  70  71
ATOM     71  CD  ILE A   1      -9.359   3.596  10.309  0.00  0.00    -0.024 C 
BRANCH  71  72
ATOM     72  CE  ILE A   1     -10.032   3.374   8.963  0.00  0.00    -0.086 C 
BRANCH  72  73
ATOM     73  NZ  ILE A   1      -9.348   4.054   7.825  0.00  0.00    +0.380 N 
ATOM     74  HZ1 ILE A   1      -9.331   5.080   7.995  0.00  0.00    -0.089 HD
ATOM     75  HZ2 ILE A   1      -8.374   3.698   7.745  0.00  0.00    -0.089 HD
ATOM     76  HZ3 ILE A   1      -9.864   3.856   6.944  0.00  0.00    -0.089 HD
ENDBRANCH  72  73
ENDBRANCH  71  72
ENDBRANCH  70  71
ENDBRANCH  69  70
ENDBRANCH  66  69
ENDBRANCH  62  66
ENDBRANCH  61  63
BRANCH  61  77
ATOM     77  CB  VAL A   2      -5.631  10.251  12.931  0.00  0.00    +0.143 C 
BRANCH  77  78
ATOM     78  CG  VAL A   2      -4.244  10.886  12.851  0.00  0.00    +0.367 C 
ATOM     79  OD2 VAL A   2      -3.224  10.290  13.251  0.00  0.00    -0.246 OA
ATOM     80  OD1 VAL A   2      -4.198  12.042  12.379  0.00  0.00    -0.246 OA
ENDBRANCH  77  78
ENDBRANCH  61  77
ENDBRANCH  57  61
ENDBRANCH  56  59
BRANCH  56  81
ATOM     81  CB  SER A   3      -2.966   9.507  17.582  0.00  0.00    +0.166 C 
BRANCH  81  82
ATOM     82  OG  SER A   3      -1.956  10.055  16.761  0.00  0.00    -0.380 OA
ATOM     83  H   SER A   3      -1.992   9.630  15.868  0.00  0.00    +0.211 HD
ENDBRANCH  81  82
ENDBRANCH  56  81
ENDBRANCH  52  56
ENDBRANCH   5  53
ENDBRANCH   4   5
ENDBRANCH   3   4
ENDBRANCH   2   3
ENDBRANCH   1   2
BRANCH   1  84
ATOM     84  CA  CYS A   8      -6.459  14.763  13.348  0.00  0.00    +0.160 C 
BRANCH  84  85
ATOM     85  C   CYS A   8      -7.307  14.156  12.264  0.00  0.00    +0.242 C 
ATOM     86  O   CYS A   8      -8.394  14.658  11.958  0.00  0.00    -0.273 OA
ATOM     87  N   ALA A   9      -6.815  13.053  11.707  0.00  0.00    -0.297 N 
ATOM     88  H   ALA A   9      -5.854  12.748  11.963  0.00  0.00    +0.150 HD
BRANCH  87  89
ATOM     89  CA  ALA A   9      -7.574  12.253  10.748  0.00  0.00    +0.149 C 
ATOM     90  CB  ALA A   9      -8.823  11.675  11.418  0.00  0.00    +0.031 C 
BRANCH  89  91
ATOM     91  C   ALA A   9      -7.932  13.025   9.470  0.00  0.00    +0.241 C 
ATOM     92  N   GLN A  10      -7.146  14.052   9.148  0.00  0.00    -0.298 N 
ATOM     93  H   GLN A  10      -6.376  14.327   9.790  0.00  0.00    +0.150 HD
ATOM     94  O   ALA A   9      -8.895  12.686   8.787  0.00  0.00    -0.273 OA
BRANCH  92  95
ATOM     95  CA  GLN A  10      -7.348  14.798   7.908  0.00  0.00    +0.137 C 
BRANCH  95  96
ATOM     96  C   GLN A  10      -6.701  14.078   6.746  0.00  0.00    +0.227 C 
ATOM     97  O   GLN A  10      -5.678  13.413   6.905  0.00  0.00    -0.286 OA
ENDBRANCH  95  96
BRANCH  95  98
ATOM     98  CB  GLN A  10      -6.742  16.197   8.012  0.00  0.00    +0.037 C 
BRANCH  98  99
ATOM     99  CG  GLN A  10      -7.321  17.046   9.126  0.00  0.00    +0.087 C 
BRANCH  99 100
ATOM    100  CD  GLN A  10      -8.810  17.225   8.991  0.00  0.00    +0.219 C 
ATOM    101  NE2 GLN A  10      -9.547  16.788  10.003  0.00  0.00    -0.329 N 
ATOM    102 HE21 GLN A  10      -9.089  16.359  10.832  0.00  0.00    +0.145 HD
ATOM    103 HE22 GLN A  10     -10.583  16.874   9.967  0.00  0.00    +0.145 HD
ATOM    104  OE1 GLN A  10      -9.299  17.741   7.985  0.00  0.00    -0.275 OA
ENDBRANCH  99 100
ENDBRANCH  98  99
ENDBRANCH  95  98
ENDBRANCH  92  95
ENDBRANCH  89  91
ENDBRANCH  87  89
ENDBRANCH  84  85
BRANCH  84 105
ATOM    105  N   CYS A   8      -6.356  16.211  13.163  0.00  0.00    -0.296 N 
ATOM    106  C   GLY A   7      -5.210  16.859  13.346  0.00  0.00    +0.243 C 
ATOM    107  O   GLY A   7      -4.167  16.295  13.679  0.00  0.00    -0.273 OA
ATOM    108  H   CYS A   8      -7.201  16.747  12.881  0.00  0.00    +0.150 HD
BRANCH 106 109
ATOM    109  CA  GLY A   7      -5.245  18.357  13.120  0.00  0.00    +0.176 C 
BRANCH 109 110
ATOM    110  N   GLY A   7      -3.962  18.884  12.693  0.00  0.00    -0.295 N 
ATOM    111  H   GLY A   7      -3.529  19.667  13.223  0.00  0.00    +0.150 HD
ATOM    112  C   SER A   6      -3.334  18.384  11.639  0.00  0.00    +0.243 C 
ATOM    113  O   SER A   6      -3.759  17.547  10.865  0.00  0.00    -0.273 OA
BRANCH 112 114
ATOM    114  CA  SER A   6      -1.736  18.583  11.336  0.00  0.00    +0.178 C 
BRANCH 114 115
ATOM    115  N   SER A   6      -0.984  17.392  11.670  0.00  0.00    -0.295 N 
ATOM    116  C   GLY A   5      -0.474  17.202  12.873  0.00  0.00    +0.243 C 
ATOM    117  O   GLY A   5      -0.657  18.000  13.801  0.00  0.00    -0.273 OA
ATOM    118  H   SER A   6      -0.841  16.664  10.941  0.00  0.00    +0.150 HD
BRANCH 116 119
ATOM    119  CA  GLY A   5       0.317  15.936  13.114  0.00  0.00    +0.176 C 
BRANCH 119 120
ATOM    120  N   GLY A   5       0.956  16.055  14.424  0.00  0.00    -0.295 N 
ATOM    121  C   TRP A   4       1.631  15.054  14.982  0.00  0.00    +0.241 C 
ATOM    122  O   TRP A   4       1.672  13.934  14.511  0.00  0.00    -0.273 OA
ATOM    123  H   GLY A   5       0.880  16.956  14.938  0.00  0.00    +0.150 HD
BRANCH 121 124
ATOM    124  CA  TRP A   4       2.346  15.380  16.280  0.00  0.00    +0.153 C 
BRANCH 124 125
ATOM    125  N   TRP A   4       2.985  14.207  16.881  0.00  0.00    -0.297 N 
ATOM    126  C   SER A   3       3.308  14.227  18.170  0.00  0.00    +0.243 C 
ATOM    127  O   SER A   3       3.032  15.189  18.903  0.00  0.00    -0.273 OA
ATOM    128  H   TRP A   4       3.184  13.365  16.304  0.00  0.00    +0.150 HD
BRANCH 126 129
ATOM    129  CA  SER A   3       4.058  13.015  18.736  0.00  0.00    +0.178 C 
BRANCH 129 130
ATOM    130  N   SER A   3       3.287  11.763  18.696  0.00  0.00    -0.295 N 
ATOM    131  C   VAL A   2       2.990  11.109  19.828  0.00  0.00    +0.241 C 
ATOM    132  O   VAL A   2       3.197  11.577  20.961  0.00  0.00    -0.273 OA
ATOM    133  H   SER A   3       2.970  11.382  17.782  0.00  0.00    +0.150 HD
BRANCH 131 134
ATOM    134  CA  VAL A   2       2.367   9.726  19.679  0.00  0.00    +0.148 C 
BRANCH 134 135
ATOM    135  N   VAL A   2       3.252   8.747  20.323  0.00  0.00    -0.297 N 
ATOM    136  H   VAL A   2       2.899   8.175  21.116  0.00  0.00    +0.150 HD
ATOM    137  C   ILE A   1       4.505   8.587  19.898  0.00  0.00    +0.238 C 
ATOM    138  O   ILE A   1       4.962   9.201  18.935  0.00  0.00    -0.274 OA
BRANCH 137 139
ATOM    139  CA  ILE A   1       5.366   7.574  20.642  0.00  0.00    +0.145 C 
BRANCH 139 140
ATOM    140  N   ILE A   1       5.993   6.744  19.620  0.00  0.00    -0.238 NA
ATOM    141  H   ILE A   1       6.512   7.215  18.852  0.00  0.00    +0.142 HD
ENDBRANCH 139 140
BRANCH 139 142
ATOM    142  CB  ILE A   1       6.431   8.324  21.455  0.00  0.00    +0.025 C 
ATOM    143  CG2 ILE A   1       5.795   9.275  22.455  0.00  0.00    +0.002 C 
BRANCH 142 144
ATOM    144  CG1 ILE A   1       7.348   7.335  22.179  0.00  0.00    +0.002 C 
ATOM    145  CD1 ILE A   1       8.602   7.986  22.695  0.00  0.00    +0.000 C 
ENDBRANCH 142 144
ENDBRANCH 139 142
ENDBRANCH 137 139
ENDBRANCH 134 135
BRANCH 134 146
ATOM    146  CB  VAL A   2       0.972   9.733  20.323  0.00  0.00    +0.027 C 
ATOM    147  CG2 VAL A   2       0.317   8.346  20.233  0.00  0.00    +0.002 C 
ATOM    148  CG1 VAL A   2       0.068  10.778  19.671  0.00  0.00    +0.002 C 
ENDBRANCH 134 146
ENDBRANCH 131 134
ENDBRANCH 129 130
BRANCH 129 149
ATOM    149  CB  SER A   3       5.443  12.832  18.072  0.00  0.00    +0.166 C 
BRANCH 149 150
ATOM    150  OG  SER A   3       6.230  14.008  18.180  0.00  0.00    -0.380 OA
ATOM    151  H   SER A   3       6.366  14.226  19.136  0.00  0.00    +0.211 HD
ENDBRANCH 149 150
ENDBRANCH 129 149
ENDBRANCH 126 129
ENDBRANCH 124 125
BRANCH 124 152
ATOM    152  CB  TRP A   4       3.356  16.531  16.088  0.00  0.00    +0.057 C 
BRANCH 152 153
ATOM    153  CG  TRP A   4       4.507  16.261  15.115  0.00  0.00    -0.002 A 
ATOM    154  CD1 TRP A   4       5.698  15.620  15.377  0.00  0.00    +0.068 A 
ATOM    155  NE1 TRP A   4       6.491  15.602  14.238  0.00  0.00    -0.352 N 
ATOM    156  HE1 TRP A   4       7.437  15.177  14.166  0.00  0.00    +0.166 HD
ATOM    157  CE2 TRP A   4       5.822  16.237  13.223  0.00  0.00    +0.056 A 
ATOM    158  CZ2 TRP A   4       6.208  16.476  11.889  0.00  0.00    +0.017 A 
ATOM    159  CH2 TRP A   4       5.320  17.161  11.090  0.00  0.00    +0.001 A 
ATOM    160  CZ3 TRP A   4       4.069  17.585  11.576  0.00  0.00    +0.000 A 
ATOM    161  CE3 TRP A   4       3.691  17.360  12.894  0.00  0.00    +0.001 A 
ATOM    162  CD2 TRP A   4       4.572  16.674  13.742  0.00  0.00    +0.013 A 
ENDBRANCH 152 153
ENDBRANCH 124 152
ENDBRANCH 121 124
ENDBRANCH 119 120
ENDBRANCH 116 119
ENDBRANCH 114 115
BRANCH 114 163
ATOM    163  CB  SER A   6      -1.417  19.133   9.951  0.00  0.00    +0.166 C 
BRANCH 163 164
ATOM    164  OG  SER A   6      -2.298  20.209   9.661  0.00  0.00    -0.380 OA
ATOM    165  H   SER A   6      -2.093  20.568   8.762  0.00  0.00    +0.211 HD
ENDBRANCH 163 164
ENDBRANCH 114 163
ENDBRANCH 112 114
ENDBRANCH 109 110
ENDBRANCH 106 109
ENDBRANCH  84 105
ENDBRANCH   1  84
TORSDOF 73
REMARK  Name = ../refined-set-2016/3gy7/3gy7_pocket.pdb
REMARK  125 active torsions:
REMARK  status: ('A' for Active; 'I' for Inactive)
REMARK    1  A    between atoms: _1  and  _5
REMARK    2  A    between atoms: _5  and  _6
REMARK    3  A    between atoms: _5  and  _8
REMARK    4  A    between atoms: _8  and  _9
REMARK    5  A    between atoms: _12  and  _14
REMARK    6  A    between atoms: _14  and  _15
REMARK    7  A    between atoms: _14  and  _17
REMARK    8  A    between atoms: _20  and  _22
REMARK    9  A    between atoms: _22  and  _23
REMARK   10  A    between atoms: _22  and  _25
REMARK   11  A    between atoms: _25  and  _26
REMARK   12  A    between atoms: _31  and  _33
REMARK   13  A    between atoms: _33  and  _34
REMARK   14  A    between atoms: _33  and  _36
REMARK   15  A    between atoms: _36  and  _37
REMARK   16  A    between atoms: _40  and  _42
REMARK   17  A    between atoms: _42  and  _43
REMARK   18  A    between atoms: _42  and  _45
REMARK   19  A    between atoms: _45  and  _46
REMARK   20  A    between atoms: _49  and  _51
REMARK   21  A    between atoms: _51  and  _52
REMARK   22  A    between atoms: _51  and  _54
REMARK   23  A    between atoms: _54  and  _55
REMARK   24  A    between atoms: _58  and  _60
REMARK   25  A    between atoms: _60  and  _61
REMARK   26  A    between atoms: _60  and  _63
REMARK   27  A    between atoms: _63  and  _64
REMARK   28  A    between atoms: _69  and  _71
REMARK   29  A    between atoms: _71  and  _72
REMARK   30  A    between atoms: _71  and  _74
REMARK   31  A    between atoms: _74  and  _75
REMARK   32  A    between atoms: _80  and  _81
REMARK   33  A    between atoms: _83  and  _85
REMARK   34  A    between atoms: _85  and  _86
REMARK   35  A    between atoms: _89  and  _91
REMARK   36  A    between atoms: _91  and  _92
REMARK   37  A    between atoms: _91  and  _94
REMARK   38  A    between atoms: _94  and  _95
REMARK   39  A    between atoms: _95  and  _96
REMARK   40  A    between atoms: _96  and  _97
REMARK   41  A    between atoms: _97  and  _98
REMARK   42  A    between atoms: _102  and  _104
REMARK   43  A    between atoms: _104  and  _105
REMARK   44  A    between atoms: _104  and  _107
REMARK   45  A    between atoms: _107  and  _108
REMARK   46  A    between atoms: _111  and  _113
REMARK   47  A    between atoms: _113  and  _114
REMARK   48  A    between atoms: _113  and  _116
REMARK   49  A    between atoms: _116  and  _117
REMARK   50  A    between atoms: _119  and  _121
REMARK   51  A    between atoms: _121  and  _122
REMARK   52  A    between atoms: _121  and  _124
REMARK   53  A    between atoms: _124  and  _125
REMARK   54  A    between atoms: _125  and  _235
REMARK   55  A    between atoms: _126  and  _128
REMARK   56  A    between atoms: _128  and  _129
REMARK   57  A    between atoms: _128  and  _131
REMARK   58  A    between atoms: _131  and  _132
REMARK   59  A    between atoms: _132  and  _133
REMARK   60  A    between atoms: _138  and  _140
REMARK   61  A    between atoms: _140  and  _141
REMARK   62  A    between atoms: _143  and  _145
REMARK   63  A    between atoms: _145  and  _146
REMARK   64  A    between atoms: _145  and  _148
REMARK   65  A    between atoms: _148  and  _149
REMARK   66  A    between atoms: _152  and  _154
REMARK   67  A    between atoms: _154  and  _155
REMARK   68  A    between atoms: _154  and  _157
REMARK   69  A    between atoms: _157  and  _158
REMARK   70  A    between atoms: _160  and  _162
REMARK   71  A    between atoms: _162  and  _163
REMARK   72  A    between atoms: _165  and  _167
REMARK   73  A    between atoms: _167  and  _168
REMARK   74  A    between atoms: _170  and  _172
REMARK   75  A    between atoms: _172  and  _173
REMARK   76  A    between atoms: _172  and  _175
REMARK   77  A    between atoms: _175  and  _176
REMARK   78  A    between atoms: _179  and  _181
REMARK   79  A    between atoms: _181  and  _182
REMARK   80  A    between atoms: _181  and  _184
REMARK   81  A    between atoms: _187  and  _189
REMARK   82  A    between atoms: _189  and  _190
REMARK   83  A    between atoms: _189  and  _192
REMARK   84  A    between atoms: _192  and  _193
REMARK   85  A    between atoms: _195  and  _197
REMARK   86  A    between atoms: _197  and  _198
REMARK   87  A    between atoms: _197  and  _200
REMARK   88  A    between atoms: _200  and  _201
REMARK   89  A    between atoms: _211  and  _213
REMARK   90  A    between atoms: _213  and  _214
REMARK   91  A    between atoms: _216  and  _218
REMARK   92  A    between atoms: _218  and  _219
REMARK   93  A    between atoms: _218  and  _221
REMARK   94  A    between atoms: _221  and  _222
REMARK   95  A    between atoms: _224  and  _226
REMARK   96  A    between atoms: _226  and  _227
REMARK   97  A    between atoms: _229  and  _231
REMARK   98  A    between atoms: _231  and  _232
REMARK   99  A    between atoms: _231  and  _234
REMARK  100  A    between atoms: _234  and  _235
REMARK  101  A    between atoms: _236  and  _238
REMARK  102  A    between atoms: _238  and  _239
REMARK  103  A    between atoms: _242  and  _244
REMARK  104  A    between atoms: _244  and  _245
REMARK  105  A    between atoms: _244  and  _247
REMARK  106  A    between atoms: _247  and  _248
REMARK  107  A    between atoms: _248  and  _249
REMARK  108  A    between atoms: _254  and  _256
REMARK  109  A    between atoms: _256  and  _257
REMARK  110  A    between atoms: _256  and  _259
REMARK  111  A    between atoms: _259  and  _260
REMARK  112  A    between atoms: _260  and  _261
REMARK  113  A    between atoms: _261  and  _262
REMARK  114  A    between atoms: _262  and  _263
REMARK  115  A    between atoms: _268  and  _269
REMARK  116  A    between atoms: _274  and  _276
REMARK  117  A    between atoms: _276  and  _277
REMARK  118  A    between atoms: _279  and  _281
REMARK  119  A    between atoms: _281  and  _282
REMARK  120  A    between atoms: _281  and  _284
REMARK  121  A    between atoms: _287  and  _289
REMARK  122  A    between atoms: _289  and  _290
REMARK  123  A    between atoms: _289  and  _292
REMARK  124  A    between atoms: _292  and  _293
REMARK  125  A    between atoms: _298  and  _299
REMARK                            x       y       z     vdW  Elec       q    Type
REMARK                         _______ _______ _______ _____ _____    ______ ____
ROOT
ATOM      1  C   GLY A   3       1.502  10.792  12.333  0.00  0.00    +0.243 C 
ATOM      2  N   VAL A   4       2.257  11.595  13.082  0.00  0.00    -0.297 N 
ATOM      3  H   VAL A   4       1.786  12.313  13.668  0.00  0.00    +0.150 HD
ATOM      4  O   GLY A   3       1.949   9.930  11.574  0.00  0.00    -0.273 OA
ENDROOT
BRANCH   2   5
ATOM      5  CA  VAL A   4       3.717  11.513  13.118  0.00  0.00    +0.149 C 
BRANCH   5   6
ATOM      6  C   VAL A   4       4.129  11.063  14.518  0.00  0.00    +0.241 C 
ATOM      7  O   VAL A   4       3.594  11.537  15.539  0.00  0.00    -0.273 OA
ATOM      8  N   TYR A   5       5.061  10.109  14.539  0.00  0.00    -0.298 N 
ATOM      9  H   TYR A   5       5.545   9.866  13.651  0.00  0.00    +0.150 HD
BRANCH   8  10
ATOM     10  CA  TYR A   5       5.430   9.394  15.752  0.00  0.00    +0.141 C 
BRANCH  10  11
ATOM     11  C   TYR A   5       6.933   9.414  15.976  0.00  0.00    +0.227 C 
ATOM     12  O   TYR A   5       7.698   9.342  15.022  0.00  0.00    -0.286 OA
ENDBRANCH  10  11
BRANCH  10  13
ATOM     13  CB  TYR A   5       4.936   7.949  15.626  0.00  0.00    +0.054 C 
BRANCH  13  14
ATOM     14  CG  TYR A   5       3.434   7.938  15.495  0.00  0.00    -0.020 A 
ATOM     15  CD2 TYR A   5       2.641   7.977  16.622  0.00  0.00    -0.001 A 
ATOM     16  CE2 TYR A   5       1.261   8.012  16.530  0.00  0.00    +0.036 A 
ATOM     17  CZ  TYR A   5       0.653   8.011  15.281  0.00  0.00    +0.134 A 
ATOM     18  CE1 TYR A   5       1.416   7.987  14.129  0.00  0.00    +0.036 A 
ATOM     19  CD1 TYR A   5       2.810   7.940  14.238  0.00  0.00    -0.001 A 
BRANCH  17  20
ATOM     20  OH  TYR A   5      -0.723   8.044  15.234  0.00  0.00    -0.506 OA
ATOM     21  HH  TYR A   5      -1.055   7.241  14.760  0.00  0.00    +0.292 HD
ENDBRANCH  17  20
ENDBRANCH  13  14
ENDBRANCH  10  13
ENDBRANCH   8  10
ENDBRANCH   5   6
BRANCH   5  22
ATOM     22  CB  VAL A   4       4.397  12.842  12.722  0.00  0.00    +0.027 C 
ATOM     23  CG2 VAL A   4       5.903  12.610  12.519  0.00  0.00    +0.002 C 
ATOM     24  CG1 VAL A   4       3.793  13.378  11.442  0.00  0.00    +0.002 C 
ENDBRANCH   5  22
ENDBRANCH   2   5
BRANCH   1  25
ATOM     25  CA  GLY A   3       0.011  10.993  12.478  0.00  0.00    +0.176 C 
BRANCH  25  27
ATOM     26  C   PRO A   2      -0.515  11.590  10.194  0.00  0.00    +0.241 C 
ATOM     27  N   GLY A   3      -0.692  10.770  11.225  0.00  0.00    -0.295 N 
ATOM     28  H   GLY A   3      -1.340   9.961  11.135  0.00  0.00    +0.150 HD
ATOM     29  O   PRO A   2       0.197  12.602  10.245  0.00  0.00    -0.273 OA
BRANCH  26  33
ATOM     30  C   LYS A   1      -2.049  13.360   8.179  0.00  0.00    +0.241 C 
ATOM     31  O   LYS A   1      -2.743  13.448   9.188  0.00  0.00    -0.273 OA
ATOM     32  N   PRO A   2      -1.242  12.312   7.942  0.00  0.00    -0.272 N 
ATOM     33  CA  PRO A   2      -1.242  11.219   8.910  0.00  0.00    +0.152 C 
ATOM     34  CB  PRO A   2      -0.477  10.112   8.176  0.00  0.00    +0.031 C 
ATOM     35  CG  PRO A   2       0.488  10.859   7.285  0.00  0.00    +0.024 C 
ATOM     36  CD  PRO A   2      -0.308  12.064   6.824  0.00  0.00    +0.094 C 
BRANCH  30  37
ATOM     37  CA  LYS A   1      -2.077  14.449   7.121  0.00  0.00    +0.145 C 
BRANCH  37  38
ATOM     38  N   LYS A   1      -2.758  13.954   5.927  0.00  0.00    -0.238 NA
ATOM     39  H   LYS A   1      -3.681  13.486   6.027  0.00  0.00    +0.142 HD
ENDBRANCH  37  38
BRANCH  37  40
ATOM     40  CB  LYS A   1      -2.729  15.740   7.644  0.00  0.00    +0.026 C 
BRANCH  40  41
ATOM     41  CG  LYS A   1      -2.569  16.934   6.676  0.00  0.00    -0.000 C 
BRANCH  41  42
ATOM     42  CD  LYS A   1      -1.092  17.299   6.492  0.00  0.00    -0.024 C 
BRANCH  42  43
ATOM     43  CE  LYS A   1      -0.910  18.492   5.577  0.00  0.00    -0.086 C 
BRANCH  43  44
ATOM     44  NZ  LYS A   1       0.536  18.802   5.357  0.00  0.00    +0.380 N 
ATOM     45  HZ1 LYS A   1       0.986  19.016   6.270  0.00  0.00    -0.089 HD
ATOM     46  HZ2 LYS A   1       1.003  17.981   4.923  0.00  0.00    -0.089 HD
ATOM     47  HZ3 LYS A   1       0.621  19.624   4.726  0.00  0.00    -0.089 HD
ENDBRANCH  43  44
ENDBRANCH  42  43
ENDBRANCH  41  42
ENDBRANCH  40  41
ENDBRANCH  37  40
ENDBRANCH  30  37
ENDBRANCH  26  33
ENDBRANCH  25  27
ENDBRANCH   1  25
TORSDOF 18
REMARK  Name = ../refined-set-2016/3gy7/3gy7_pocket.pdb
REMARK  125 active torsions:
REMARK  status: ('A' for Active; 'I' for Inactive)
REMARK    1  A    between atoms: _1  and  _5
REMARK    2  A    between atoms: _5  and  _6
REMARK    3  A    between atoms: _5  and  _8
REMARK    4  A    between atoms: _8  and  _9
REMARK    5  A    between atoms: _12  and  _14
REMARK    6  A    between atoms: _14  and  _15
REMARK    7  A    between atoms: _14  and  _17
REMARK    8  A    between atoms: _20  and  _22
REMARK    9  A    between atoms: _22  and  _23
REMARK   10  A    between atoms: _22  and  _25
REMARK   11  A    between atoms: _25  and  _26
REMARK   12  A    between atoms: _31  and  _33
REMARK   13  A    between atoms: _33  and  _34
REMARK   14  A    between atoms: _33  and  _36
REMARK   15  A    between atoms: _36  and  _37
REMARK   16  A    between atoms: _40  and  _42
REMARK   17  A    between atoms: _42  and  _43
REMARK   18  A    between atoms: _42  and  _45
REMARK   19  A    between atoms: _45  and  _46
REMARK   20  A    between atoms: _49  and  _51
REMARK   21  A    between atoms: _51  and  _52
REMARK   22  A    between atoms: _51  and  _54
REMARK   23  A    between atoms: _54  and  _55
REMARK   24  A    between atoms: _58  and  _60
REMARK   25  A    between atoms: _60  and  _61
REMARK   26  A    between atoms: _60  and  _63
REMARK   27  A    between atoms: _63  and  _64
REMARK   28  A    between atoms: _69  and  _71
REMARK   29  A    between atoms: _71  and  _72
REMARK   30  A    between atoms: _71  and  _74
REMARK   31  A    between atoms: _74  and  _75
REMARK   32  A    between atoms: _80  and  _81
REMARK   33  A    between atoms: _83  and  _85
REMARK   34  A    between atoms: _85  and  _86
REMARK   35  A    between atoms: _89  and  _91
REMARK   36  A    between atoms: _91  and  _92
REMARK   37  A    between atoms: _91  and  _94
REMARK   38  A    between atoms: _94  and  _95
REMARK   39  A    between atoms: _95  and  _96
REMARK   40  A    between atoms: _96  and  _97
REMARK   41  A    between atoms: _97  and  _98
REMARK   42  A    between atoms: _102  and  _104
REMARK   43  A    between atoms: _104  and  _105
REMARK   44  A    between atoms: _104  and  _107
REMARK   45  A    between atoms: _107  and  _108
REMARK   46  A    between atoms: _111  and  _113
REMARK   47  A    between atoms: _113  and  _114
REMARK   48  A    between atoms: _113  and  _116
REMARK   49  A    between atoms: _116  and  _117
REMARK   50  A    between atoms: _119  and  _121
REMARK   51  A    between atoms: _121  and  _122
REMARK   52  A    between atoms: _121  and  _124
REMARK   53  A    between atoms: _124  and  _125
REMARK   54  A    between atoms: _125  and  _235
REMARK   55  A    between atoms: _126  and  _128
REMARK   56  A    between atoms: _128  and  _129
REMARK   57  A    between atoms: _128  and  _131
REMARK   58  A    between atoms: _131  and  _132
REMARK   59  A    between atoms: _132  and  _133
REMARK   60  A    between atoms: _138  and  _140
REMARK   61  A    between atoms: _140  and  _141
REMARK   62  A    between atoms: _143  and  _145
REMARK   63  A    between atoms: _145  and  _146
REMARK   64  A    between atoms: _145  and  _148
REMARK   65  A    between atoms: _148  and  _149
REMARK   66  A    between atoms: _152  and  _154
REMARK   67  A    between atoms: _154  and  _155
REMARK   68  A    between atoms: _154  and  _157
REMARK   69  A    between atoms: _157  and  _158
REMARK   70  A    between atoms: _160  and  _162
REMARK   71  A    between atoms: _162  and  _163
REMARK   72  A    between atoms: _165  and  _167
REMARK   73  A    between atoms: _167  and  _168
REMARK   74  A    between atoms: _170  and  _172
REMARK   75  A    between atoms: _172  and  _173
REMARK   76  A    between atoms: _172  and  _175
REMARK   77  A    between atoms: _175  and  _176
REMARK   78  A    between atoms: _179  and  _181
REMARK   79  A    between atoms: _181  and  _182
REMARK   80  A    between atoms: _181  and  _184
REMARK   81  A    between atoms: _187  and  _189
REMARK   82  A    between atoms: _189  and  _190
REMARK   83  A    between atoms: _189  and  _192
REMARK   84  A    between atoms: _192  and  _193
REMARK   85  A    between atoms: _195  and  _197
REMARK   86  A    between atoms: _197  and  _198
REMARK   87  A    between atoms: _197  and  _200
REMARK   88  A    between atoms: _200  and  _201
REMARK   89  A    between atoms: _211  and  _213
REMARK   90  A    between atoms: _213  and  _214
REMARK   91  A    between atoms: _216  and  _218
REMARK   92  A    between atoms: _218  and  _219
REMARK   93  A    between atoms: _218  and  _221
REMARK   94  A    between atoms: _221  and  _222
REMARK   95  A    between atoms: _224  and  _226
REMARK   96  A    between atoms: _226  and  _227
REMARK   97  A    between atoms: _229  and  _231
REMARK   98  A    between atoms: _231  and  _232
REMARK   99  A    between atoms: _231  and  _234
REMARK  100  A    between atoms: _234  and  _235
REMARK  101  A    between atoms: _236  and  _238
REMARK  102  A    between atoms: _238  and  _239
REMARK  103  A    between atoms: _242  and  _244
REMARK  104  A    between atoms: _244  and  _245
REMARK  105  A    between atoms: _244  and  _247
REMARK  106  A    between atoms: _247  and  _248
REMARK  107  A    between atoms: _248  and  _249
REMARK  108  A    between atoms: _254  and  _256
REMARK  109  A    between atoms: _256  and  _257
REMARK  110  A    between atoms: _256  and  _259
REMARK  111  A    between atoms: _259  and  _260
REMARK  112  A    between atoms: _260  and  _261
REMARK  113  A    between atoms: _261  and  _262
REMARK  114  A    between atoms: _262  and  _263
REMARK  115  A    between atoms: _268  and  _269
REMARK  116  A    between atoms: _274  and  _276
REMARK  117  A    between atoms: _276  and  _277
REMARK  118  A    between atoms: _279  and  _281
REMARK  119  A    between atoms: _281  and  _282
REMARK  120  A    between atoms: _281  and  _284
REMARK  121  A    between atoms: _287  and  _289
REMARK  122  A    between atoms: _289  and  _290
REMARK  123  A    between atoms: _289  and  _292
REMARK  124  A    between atoms: _292  and  _293
REMARK  125  A    between atoms: _298  and  _299
REMARK                            x       y       z     vdW  Elec       q    Type
REMARK                         _______ _______ _______ _____ _____    ______ ____
ROOT
ATOM      1  O   HOH     1      -2.056   7.852  12.953  0.00  0.00    +0.000 OA
ENDROOT
TORSDOF 0
REMARK  Name = ../refined-set-2016/3gy7/3gy7_pocket.pdb
REMARK  125 active torsions:
REMARK  status: ('A' for Active; 'I' for Inactive)
REMARK    1  A    between atoms: _1  and  _5
REMARK    2  A    between atoms: _5  and  _6
REMARK    3  A    between atoms: _5  and  _8
REMARK    4  A    between atoms: _8  and  _9
REMARK    5  A    between atoms: _12  and  _14
REMARK    6  A    between atoms: _14  and  _15
REMARK    7  A    between atoms: _14  and  _17
REMARK    8  A    between atoms: _20  and  _22
REMARK    9  A    between atoms: _22  and  _23
REMARK   10  A    between atoms: _22  and  _25
REMARK   11  A    between atoms: _25  and  _26
REMARK   12  A    between atoms: _31  and  _33
REMARK   13  A    between atoms: _33  and  _34
REMARK   14  A    between atoms: _33  and  _36
REMARK   15  A    between atoms: _36  and  _37
REMARK   16  A    between atoms: _40  and  _42
REMARK   17  A    between atoms: _42  and  _43
REMARK   18  A    between atoms: _42  and  _45
REMARK   19  A    between atoms: _45  and  _46
REMARK   20  A    between atoms: _49  and  _51
REMARK   21  A    between atoms: _51  and  _52
REMARK   22  A    between atoms: _51  and  _54
REMARK   23  A    between atoms: _54  and  _55
REMARK   24  A    between atoms: _58  and  _60
REMARK   25  A    between atoms: _60  and  _61
REMARK   26  A    between atoms: _60  and  _63
REMARK   27  A    between atoms: _63  and  _64
REMARK   28  A    between atoms: _69  and  _71
REMARK   29  A    between atoms: _71  and  _72
REMARK   30  A    between atoms: _71  and  _74
REMARK   31  A    between atoms: _74  and  _75
REMARK   32  A    between atoms: _80  and  _81
REMARK   33  A    between atoms: _83  and  _85
REMARK   34  A    between atoms: _85  and  _86
REMARK   35  A    between atoms: _89  and  _91
REMARK   36  A    between atoms: _91  and  _92
REMARK   37  A    between atoms: _91  and  _94
REMARK   38  A    between atoms: _94  and  _95
REMARK   39  A    between atoms: _95  and  _96
REMARK   40  A    between atoms: _96  and  _97
REMARK   41  A    between atoms: _97  and  _98
REMARK   42  A    between atoms: _102  and  _104
REMARK   43  A    between atoms: _104  and  _105
REMARK   44  A    between atoms: _104  and  _107
REMARK   45  A    between atoms: _107  and  _108
REMARK   46  A    between atoms: _111  and  _113
REMARK   47  A    between atoms: _113  and  _114
REMARK   48  A    between atoms: _113  and  _116
REMARK   49  A    between atoms: _116  and  _117
REMARK   50  A    between atoms: _119  and  _121
REMARK   51  A    between atoms: _121  and  _122
REMARK   52  A    between atoms: _121  and  _124
REMARK   53  A    between atoms: _124  and  _125
REMARK   54  A    between atoms: _125  and  _235
REMARK   55  A    between atoms: _126  and  _128
REMARK   56  A    between atoms: _128  and  _129
REMARK   57  A    between atoms: _128  and  _131
REMARK   58  A    between atoms: _131  and  _132
REMARK   59  A    between atoms: _132  and  _133
REMARK   60  A    between atoms: _138  and  _140
REMARK   61  A    between atoms: _140  and  _141
REMARK   62  A    between atoms: _143  and  _145
REMARK   63  A    between atoms: _145  and  _146
REMARK   64  A    between atoms: _145  and  _148
REMARK   65  A    between atoms: _148  and  _149
REMARK   66  A    between atoms: _152  and  _154
REMARK   67  A    between atoms: _154  and  _155
REMARK   68  A    between atoms: _154  and  _157
REMARK   69  A    between atoms: _157  and  _158
REMARK   70  A    between atoms: _160  and  _162
REMARK   71  A    between atoms: _162  and  _163
REMARK   72  A    between atoms: _165  and  _167
REMARK   73  A    between atoms: _167  and  _168
REMARK   74  A    between atoms: _170  and  _172
REMARK   75  A    between atoms: _172  and  _173
REMARK   76  A    between atoms: _172  and  _175
REMARK   77  A    between atoms: _175  and  _176
REMARK   78  A    between atoms: _179  and  _181
REMARK   79  A    between atoms: _181  and  _182
REMARK   80  A    between atoms: _181  and  _184
REMARK   81  A    between atoms: _187  and  _189
REMARK   82  A    between atoms: _189  and  _190
REMARK   83  A    between atoms: _189  and  _192
REMARK   84  A    between atoms: _192  and  _193
REMARK   85  A    between atoms: _195  and  _197
REMARK   86  A    between atoms: _197  and  _198
REMARK   87  A    between atoms: _197  and  _200
REMARK   88  A    between atoms: _200  and  _201
REMARK   89  A    between atoms: _211  and  _213
REMARK   90  A    between atoms: _213  and  _214
REMARK   91  A    between atoms: _216  and  _218
REMARK   92  A    between atoms: _218  and  _219
REMARK   93  A    between atoms: _218  and  _221
REMARK   94  A    between atoms: _221  and  _222
REMARK   95  A    between atoms: _224  and  _226
REMARK   96  A    between atoms: _226  and  _227
REMARK   97  A    between atoms: _229  and  _231
REMARK   98  A    between atoms: _231  and  _232
REMARK   99  A    between atoms: _231  and  _234
REMARK  100  A    between atoms: _234  and  _235
REMARK  101  A    between atoms: _236  and  _238
REMARK  102  A    between atoms: _238  and  _239
REMARK  103  A    between atoms: _242  and  _244
REMARK  104  A    between atoms: _244  and  _245
REMARK  105  A    between atoms: _244  and  _247
REMARK  106  A    between atoms: _247  and  _248
REMARK  107  A    between atoms: _248  and  _249
REMARK  108  A    between atoms: _254  and  _256
REMARK  109  A    between atoms: _256  and  _257
REMARK  110  A    between atoms: _256  and  _259
REMARK  111  A    between atoms: _259  and  _260
REMARK  112  A    between atoms: _260  and  _261
REMARK  113  A    between atoms: _261  and  _262
REMARK  114  A    between atoms: _262  and  _263
REMARK  115  A    between atoms: _268  and  _269
REMARK  116  A    between atoms: _274  and  _276
REMARK  117  A    between atoms: _276  and  _277
REMARK  118  A    between atoms: _279  and  _281
REMARK  119  A    between atoms: _281  and  _282
REMARK  120  A    between atoms: _281  and  _284
REMARK  121  A    between atoms: _287  and  _289
REMARK  122  A    between atoms: _289  and  _290
REMARK  123  A    between atoms: _289  and  _292
REMARK  124  A    between atoms: _292  and  _293
REMARK  125  A    between atoms: _298  and  _299
REMARK                            x       y       z     vdW  Elec       q    Type
REMARK                         _______ _______ _______ _____ _____    ______ ____
ROOT
ATOM      1  O   HOH     1       0.790  11.377  16.089  0.00  0.00    +0.000 OA
ENDROOT
TORSDOF 0
REMARK  Name = ../refined-set-2016/3gy7/3gy7_pocket.pdb
REMARK  125 active torsions:
REMARK  status: ('A' for Active; 'I' for Inactive)
REMARK    1  A    between atoms: _1  and  _5
REMARK    2  A    between atoms: _5  and  _6
REMARK    3  A    between atoms: _5  and  _8
REMARK    4  A    between atoms: _8  and  _9
REMARK    5  A    between atoms: _12  and  _14
REMARK    6  A    between atoms: _14  and  _15
REMARK    7  A    between atoms: _14  and  _17
REMARK    8  A    between atoms: _20  and  _22
REMARK    9  A    between atoms: _22  and  _23
REMARK   10  A    between atoms: _22  and  _25
REMARK   11  A    between atoms: _25  and  _26
REMARK   12  A    between atoms: _31  and  _33
REMARK   13  A    between atoms: _33  and  _34
REMARK   14  A    between atoms: _33  and  _36
REMARK   15  A    between atoms: _36  and  _37
REMARK   16  A    between atoms: _40  and  _42
REMARK   17  A    between atoms: _42  and  _43
REMARK   18  A    between atoms: _42  and  _45
REMARK   19  A    between atoms: _45  and  _46
REMARK   20  A    between atoms: _49  and  _51
REMARK   21  A    between atoms: _51  and  _52
REMARK   22  A    between atoms: _51  and  _54
REMARK   23  A    between atoms: _54  and  _55
REMARK   24  A    between atoms: _58  and  _60
REMARK   25  A    between atoms: _60  and  _61
REMARK   26  A    between atoms: _60  and  _63
REMARK   27  A    between atoms: _63  and  _64
REMARK   28  A    between atoms: _69  and  _71
REMARK   29  A    between atoms: _71  and  _72
REMARK   30  A    between atoms: _71  and  _74
REMARK   31  A    between atoms: _74  and  _75
REMARK   32  A    between atoms: _80  and  _81
REMARK   33  A    between atoms: _83  and  _85
REMARK   34  A    between atoms: _85  and  _86
REMARK   35  A    between atoms: _89  and  _91
REMARK   36  A    between atoms: _91  and  _92
REMARK   37  A    between atoms: _91  and  _94
REMARK   38  A    between atoms: _94  and  _95
REMARK   39  A    between atoms: _95  and  _96
REMARK   40  A    between atoms: _96  and  _97
REMARK   41  A    between atoms: _97  and  _98
REMARK   42  A    between atoms: _102  and  _104
REMARK   43  A    between atoms: _104  and  _105
REMARK   44  A    between atoms: _104  and  _107
REMARK   45  A    between atoms: _107  and  _108
REMARK   46  A    between atoms: _111  and  _113
REMARK   47  A    between atoms: _113  and  _114
REMARK   48  A    between atoms: _113  and  _116
REMARK   49  A    between atoms: _116  and  _117
REMARK   50  A    between atoms: _119  and  _121
REMARK   51  A    between atoms: _121  and  _122
REMARK   52  A    between atoms: _121  and  _124
REMARK   53  A    between atoms: _124  and  _125
REMARK   54  A    between atoms: _125  and  _235
REMARK   55  A    between atoms: _126  and  _128
REMARK   56  A    between atoms: _128  and  _129
REMARK   57  A    between atoms: _128  and  _131
REMARK   58  A    between atoms: _131  and  _132
REMARK   59  A    between atoms: _132  and  _133
REMARK   60  A    between atoms: _138  and  _140
REMARK   61  A    between atoms: _140  and  _141
REMARK   62  A    between atoms: _143  and  _145
REMARK   63  A    between atoms: _145  and  _146
REMARK   64  A    between atoms: _145  and  _148
REMARK   65  A    between atoms: _148  and  _149
REMARK   66  A    between atoms: _152  and  _154
REMARK   67  A    between atoms: _154  and  _155
REMARK   68  A    between atoms: _154  and  _157
REMARK   69  A    between atoms: _157  and  _158
REMARK   70  A    between atoms: _160  and  _162
REMARK   71  A    between atoms: _162  and  _163
REMARK   72  A    between atoms: _165  and  _167
REMARK   73  A    between atoms: _167  and  _168
REMARK   74  A    between atoms: _170  and  _172
REMARK   75  A    between atoms: _172  and  _173
REMARK   76  A    between atoms: _172  and  _175
REMARK   77  A    between atoms: _175  and  _176
REMARK   78  A    between atoms: _179  and  _181
REMARK   79  A    between atoms: _181  and  _182
REMARK   80  A    between atoms: _181  and  _184
REMARK   81  A    between atoms: _187  and  _189
REMARK   82  A    between atoms: _189  and  _190
REMARK   83  A    between atoms: _189  and  _192
REMARK   84  A    between atoms: _192  and  _193
REMARK   85  A    between atoms: _195  and  _197
REMARK   86  A    between atoms: _197  and  _198
REMARK   87  A    between atoms: _197  and  _200
REMARK   88  A    between atoms: _200  and  _201
REMARK   89  A    between atoms: _211  and  _213
REMARK   90  A    between atoms: _213  and  _214
REMARK   91  A    between atoms: _216  and  _218
REMARK   92  A    between atoms: _218  and  _219
REMARK   93  A    between atoms: _218  and  _221
REMARK   94  A    between atoms: _221  and  _222
REMARK   95  A    between atoms: _224  and  _226
REMARK   96  A    between atoms: _226  and  _227
REMARK   97  A    between atoms: _229  and  _231
REMARK   98  A    between atoms: _231  and  _232
REMARK   99  A    between atoms: _231  and  _234
REMARK  100  A    between atoms: _234  and  _235
REMARK  101  A    between atoms: _236  and  _238
REMARK  102  A    between atoms: _238  and  _239
REMARK  103  A    between atoms: _242  and  _244
REMARK  104  A    between atoms: _244  and  _245
REMARK  105  A    between atoms: _244  and  _247
REMARK  106  A    between atoms: _247  and  _248
REMARK  107  A    between atoms: _248  and  _249
REMARK  108  A    between atoms: _254  and  _256
REMARK  109  A    between atoms: _256  and  _257
REMARK  110  A    between atoms: _256  and  _259
REMARK  111  A    between atoms: _259  and  _260
REMARK  112  A    between atoms: _260  and  _261
REMARK  113  A    between atoms: _261  and  _262
REMARK  114  A    between atoms: _262  and  _263
REMARK  115  A    between atoms: _268  and  _269
REMARK  116  A    between atoms: _274  and  _276
REMARK  117  A    between atoms: _276  and  _277
REMARK  118  A    between atoms: _279  and  _281
REMARK  119  A    between atoms: _281  and  _282
REMARK  120  A    between atoms: _281  and  _284
REMARK  121  A    between atoms: _287  and  _289
REMARK  122  A    between atoms: _289  and  _290
REMARK  123  A    between atoms: _289  and  _292
REMARK  124  A    between atoms: _292  and  _293
REMARK  125  A    between atoms: _298  and  _299
REMARK                            x       y       z     vdW  Elec       q    Type
REMARK                         _______ _______ _______ _____ _____    ______ ____
ROOT
ATOM      1  O   HOH     1      -4.705  14.919  10.423  0.00  0.00    +0.000 OA
ENDROOT
TORSDOF 0
REMARK  Name = ../refined-set-2016/3gy7/3gy7_pocket.pdb
REMARK  125 active torsions:
REMARK  status: ('A' for Active; 'I' for Inactive)
REMARK    1  A    between atoms: _1  and  _5
REMARK    2  A    between atoms: _5  and  _6
REMARK    3  A    between atoms: _5  and  _8
REMARK    4  A    between atoms: _8  and  _9
REMARK    5  A    between atoms: _12  and  _14
REMARK    6  A    between atoms: _14  and  _15
REMARK    7  A    between atoms: _14  and  _17
REMARK    8  A    between atoms: _20  and  _22
REMARK    9  A    between atoms: _22  and  _23
REMARK   10  A    between atoms: _22  and  _25
REMARK   11  A    between atoms: _25  and  _26
REMARK   12  A    between atoms: _31  and  _33
REMARK   13  A    between atoms: _33  and  _34
REMARK   14  A    between atoms: _33  and  _36
REMARK   15  A    between atoms: _36  and  _37
REMARK   16  A    between atoms: _40  and  _42
REMARK   17  A    between atoms: _42  and  _43
REMARK   18  A    between atoms: _42  and  _45
REMARK   19  A    between atoms: _45  and  _46
REMARK   20  A    between atoms: _49  and  _51
REMARK   21  A    between atoms: _51  and  _52
REMARK   22  A    between atoms: _51  and  _54
REMARK   23  A    between atoms: _54  and  _55
REMARK   24  A    between atoms: _58  and  _60
REMARK   25  A    between atoms: _60  and  _61
REMARK   26  A    between atoms: _60  and  _63
REMARK   27  A    between atoms: _63  and  _64
REMARK   28  A    between atoms: _69  and  _71
REMARK   29  A    between atoms: _71  and  _72
REMARK   30  A    between atoms: _71  and  _74
REMARK   31  A    between atoms: _74  and  _75
REMARK   32  A    between atoms: _80  and  _81
REMARK   33  A    between atoms: _83  and  _85
REMARK   34  A    between atoms: _85  and  _86
REMARK   35  A    between atoms: _89  and  _91
REMARK   36  A    between atoms: _91  and  _92
REMARK   37  A    between atoms: _91  and  _94
REMARK   38  A    between atoms: _94  and  _95
REMARK   39  A    between atoms: _95  and  _96
REMARK   40  A    between atoms: _96  and  _97
REMARK   41  A    between atoms: _97  and  _98
REMARK   42  A    between atoms: _102  and  _104
REMARK   43  A    between atoms: _104  and  _105
REMARK   44  A    between atoms: _104  and  _107
REMARK   45  A    between atoms: _107  and  _108
REMARK   46  A    between atoms: _111  and  _113
REMARK   47  A    between atoms: _113  and  _114
REMARK   48  A    between atoms: _113  and  _116
REMARK   49  A    between atoms: _116  and  _117
REMARK   50  A    between atoms: _119  and  _121
REMARK   51  A    between atoms: _121  and  _122
REMARK   52  A    between atoms: _121  and  _124
REMARK   53  A    between atoms: _124  and  _125
REMARK   54  A    between atoms: _125  and  _235
REMARK   55  A    between atoms: _126  and  _128
REMARK   56  A    between atoms: _128  and  _129
REMARK   57  A    between atoms: _128  and  _131
REMARK   58  A    between atoms: _131  and  _132
REMARK   59  A    between atoms: _132  and  _133
REMARK   60  A    between atoms: _138  and  _140
REMARK   61  A    between atoms: _140  and  _141
REMARK   62  A    between atoms: _143  and  _145
REMARK   63  A    between atoms: _145  and  _146
REMARK   64  A    between atoms: _145  and  _148
REMARK   65  A    between atoms: _148  and  _149
REMARK   66  A    between atoms: _152  and  _154
REMARK   67  A    between atoms: _154  and  _155
REMARK   68  A    between atoms: _154  and  _157
REMARK   69  A    between atoms: _157  and  _158
REMARK   70  A    between atoms: _160  and  _162
REMARK   71  A    between atoms: _162  and  _163
REMARK   72  A    between atoms: _165  and  _167
REMARK   73  A    between atoms: _167  and  _168
REMARK   74  A    between atoms: _170  and  _172
REMARK   75  A    between atoms: _172  and  _173
REMARK   76  A    between atoms: _172  and  _175
REMARK   77  A    between atoms: _175  and  _176
REMARK   78  A    between atoms: _179  and  _181
REMARK   79  A    between atoms: _181  and  _182
REMARK   80  A    between atoms: _181  and  _184
REMARK   81  A    between atoms: _187  and  _189
REMARK   82  A    between atoms: _189  and  _190
REMARK   83  A    between atoms: _189  and  _192
REMARK   84  A    between atoms: _192  and  _193
REMARK   85  A    between atoms: _195  and  _197
REMARK   86  A    between atoms: _197  and  _198
REMARK   87  A    between atoms: _197  and  _200
REMARK   88  A    between atoms: _200  and  _201
REMARK   89  A    between atoms: _211  and  _213
REMARK   90  A    between atoms: _213  and  _214
REMARK   91  A    between atoms: _216  and  _218
REMARK   92  A    between atoms: _218  and  _219
REMARK   93  A    between atoms: _218  and  _221
REMARK   94  A    between atoms: _221  and  _222
REMARK   95  A    between atoms: _224  and  _226
REMARK   96  A    between atoms: _226  and  _227
REMARK   97  A    between atoms: _229  and  _231
REMARK   98  A    between atoms: _231  and  _232
REMARK   99  A    between atoms: _231  and  _234
REMARK  100  A    between atoms: _234  and  _235
REMARK  101  A    between atoms: _236  and  _238
REMARK  102  A    between atoms: _238  and  _239
REMARK  103  A    between atoms: _242  and  _244
REMARK  104  A    between atoms: _244  and  _245
REMARK  105  A    between atoms: _244  and  _247
REMARK  106  A    between atoms: _247  and  _248
REMARK  107  A    between atoms: _248  and  _249
REMARK  108  A    between atoms: _254  and  _256
REMARK  109  A    between atoms: _256  and  _257
REMARK  110  A    between atoms: _256  and  _259
REMARK  111  A    between atoms: _259  and  _260
REMARK  112  A    between atoms: _260  and  _261
REMARK  113  A    between atoms: _261  and  _262
REMARK  114  A    between atoms: _262  and  _263
REMARK  115  A    between atoms: _268  and  _269
REMARK  116  A    between atoms: _274  and  _276
REMARK  117  A    between atoms: _276  and  _277
REMARK  118  A    between atoms: _279  and  _281
REMARK  119  A    between atoms: _281  and  _282
REMARK  120  A    between atoms: _281  and  _284
REMARK  121  A    between atoms: _287  and  _289
REMARK  122  A    between atoms: _289  and  _290
REMARK  123  A    between atoms: _289  and  _292
REMARK  124  A    between atoms: _292  and  _293
REMARK  125  A    between atoms: _298  and  _299
REMARK                            x       y       z     vdW  Elec       q    Type
REMARK                         _______ _______ _______ _____ _____    ______ ____
ROOT
ATOM      1  O   HOH     1      -8.555  18.089  12.870  0.00  0.00    +0.000 OA
ENDROOT
TORSDOF 0
REMARK  Name = ../refined-set-2016/3gy7/3gy7_pocket.pdb
REMARK  125 active torsions:
REMARK  status: ('A' for Active; 'I' for Inactive)
REMARK    1  A    between atoms: _1  and  _5
REMARK    2  A    between atoms: _5  and  _6
REMARK    3  A    between atoms: _5  and  _8
REMARK    4  A    between atoms: _8  and  _9
REMARK    5  A    between atoms: _12  and  _14
REMARK    6  A    between atoms: _14  and  _15
REMARK    7  A    between atoms: _14  and  _17
REMARK    8  A    between atoms: _20  and  _22
REMARK    9  A    between atoms: _22  and  _23
REMARK   10  A    between atoms: _22  and  _25
REMARK   11  A    between atoms: _25  and  _26
REMARK   12  A    between atoms: _31  and  _33
REMARK   13  A    between atoms: _33  and  _34
REMARK   14  A    between atoms: _33  and  _36
REMARK   15  A    between atoms: _36  and  _37
REMARK   16  A    between atoms: _40  and  _42
REMARK   17  A    between atoms: _42  and  _43
REMARK   18  A    between atoms: _42  and  _45
REMARK   19  A    between atoms: _45  and  _46
REMARK   20  A    between atoms: _49  and  _51
REMARK   21  A    between atoms: _51  and  _52
REMARK   22  A    between atoms: _51  and  _54
REMARK   23  A    between atoms: _54  and  _55
REMARK   24  A    between atoms: _58  and  _60
REMARK   25  A    between atoms: _60  and  _61
REMARK   26  A    between atoms: _60  and  _63
REMARK   27  A    between atoms: _63  and  _64
REMARK   28  A    between atoms: _69  and  _71
REMARK   29  A    between atoms: _71  and  _72
REMARK   30  A    between atoms: _71  and  _74
REMARK   31  A    between atoms: _74  and  _75
REMARK   32  A    between atoms: _80  and  _81
REMARK   33  A    between atoms: _83  and  _85
REMARK   34  A    between atoms: _85  and  _86
REMARK   35  A    between atoms: _89  and  _91
REMARK   36  A    between atoms: _91  and  _92
REMARK   37  A    between atoms: _91  and  _94
REMARK   38  A    between atoms: _94  and  _95
REMARK   39  A    between atoms: _95  and  _96
REMARK   40  A    between atoms: _96  and  _97
REMARK   41  A    between atoms: _97  and  _98
REMARK   42  A    between atoms: _102  and  _104
REMARK   43  A    between atoms: _104  and  _105
REMARK   44  A    between atoms: _104  and  _107
REMARK   45  A    between atoms: _107  and  _108
REMARK   46  A    between atoms: _111  and  _113
REMARK   47  A    between atoms: _113  and  _114
REMARK   48  A    between atoms: _113  and  _116
REMARK   49  A    between atoms: _116  and  _117
REMARK   50  A    between atoms: _119  and  _121
REMARK   51  A    between atoms: _121  and  _122
REMARK   52  A    between atoms: _121  and  _124
REMARK   53  A    between atoms: _124  and  _125
REMARK   54  A    between atoms: _125  and  _235
REMARK   55  A    between atoms: _126  and  _128
REMARK   56  A    between atoms: _128  and  _129
REMARK   57  A    between atoms: _128  and  _131
REMARK   58  A    between atoms: _131  and  _132
REMARK   59  A    between atoms: _132  and  _133
REMARK   60  A    between atoms: _138  and  _140
REMARK   61  A    between atoms: _140  and  _141
REMARK   62  A    between atoms: _143  and  _145
REMARK   63  A    between atoms: _145  and  _146
REMARK   64  A    between atoms: _145  and  _148
REMARK   65  A    between atoms: _148  and  _149
REMARK   66  A    between atoms: _152  and  _154
REMARK   67  A    between atoms: _154  and  _155
REMARK   68  A    between atoms: _154  and  _157
REMARK   69  A    between atoms: _157  and  _158
REMARK   70  A    between atoms: _160  and  _162
REMARK   71  A    between atoms: _162  and  _163
REMARK   72  A    between atoms: _165  and  _167
REMARK   73  A    between atoms: _167  and  _168
REMARK   74  A    between atoms: _170  and  _172
REMARK   75  A    between atoms: _172  and  _173
REMARK   76  A    between atoms: _172  and  _175
REMARK   77  A    between atoms: _175  and  _176
REMARK   78  A    between atoms: _179  and  _181
REMARK   79  A    between atoms: _181  and  _182
REMARK   80  A    between atoms: _181  and  _184
REMARK   81  A    between atoms: _187  and  _189
REMARK   82  A    between atoms: _189  and  _190
REMARK   83  A    between atoms: _189  and  _192
REMARK   84  A    between atoms: _192  and  _193
REMARK   85  A    between atoms: _195  and  _197
REMARK   86  A    between atoms: _197  and  _198
REMARK   87  A    between atoms: _197  and  _200
REMARK   88  A    between atoms: _200  and  _201
REMARK   89  A    between atoms: _211  and  _213
REMARK   90  A    between atoms: _213  and  _214
REMARK   91  A    between atoms: _216  and  _218
REMARK   92  A    between atoms: _218  and  _219
REMARK   93  A    between atoms: _218  and  _221
REMARK   94  A    between atoms: _221  and  _222
REMARK   95  A    between atoms: _224  and  _226
REMARK   96  A    between atoms: _226  and  _227
REMARK   97  A    between atoms: _229  and  _231
REMARK   98  A    between atoms: _231  and  _232
REMARK   99  A    between atoms: _231  and  _234
REMARK  100  A    between atoms: _234  and  _235
REMARK  101  A    between atoms: _236  and  _238
REMARK  102  A    between atoms: _238  and  _239
REMARK  103  A    between atoms: _242  and  _244
REMARK  104  A    between atoms: _244  and  _245
REMARK  105  A    between atoms: _244  and  _247
REMARK  106  A    between atoms: _247  and  _248
REMARK  107  A    between atoms: _248  and  _249
REMARK  108  A    between atoms: _254  and  _256
REMARK  109  A    between atoms: _256  and  _257
REMARK  110  A    between atoms: _256  and  _259
REMARK  111  A    between atoms: _259  and  _260
REMARK  112  A    between atoms: _260  and  _261
REMARK  113  A    between atoms: _261  and  _262
REMARK  114  A    between atoms: _262  and  _263
REMARK  115  A    between atoms: _268  and  _269
REMARK  116  A    between atoms: _274  and  _276
REMARK  117  A    between atoms: _276  and  _277
REMARK  118  A    between atoms: _279  and  _281
REMARK  119  A    between atoms: _281  and  _282
REMARK  120  A    between atoms: _281  and  _284
REMARK  121  A    between atoms: _287  and  _289
REMARK  122  A    between atoms: _289  and  _290
REMARK  123  A    between atoms: _289  and  _292
REMARK  124  A    between atoms: _292  and  _293
REMARK  125  A    between atoms: _298  and  _299
REMARK                            x       y       z     vdW  Elec       q    Type
REMARK                         _______ _______ _______ _____ _____    ______ ____
ROOT
ATOM      1  O   HOH     1      -4.650  11.214   9.544  0.00  0.00    +0.000 OA
ENDROOT
TORSDOF 0
REMARK  Name = ../refined-set-2016/3gy7/3gy7_pocket.pdb
REMARK  125 active torsions:
REMARK  status: ('A' for Active; 'I' for Inactive)
REMARK    1  A    between atoms: _1  and  _5
REMARK    2  A    between atoms: _5  and  _6
REMARK    3  A    between atoms: _5  and  _8
REMARK    4  A    between atoms: _8  and  _9
REMARK    5  A    between atoms: _12  and  _14
REMARK    6  A    between atoms: _14  and  _15
REMARK    7  A    between atoms: _14  and  _17
REMARK    8  A    between atoms: _20  and  _22
REMARK    9  A    between atoms: _22  and  _23
REMARK   10  A    between atoms: _22  and  _25
REMARK   11  A    between atoms: _25  and  _26
REMARK   12  A    between atoms: _31  and  _33
REMARK   13  A    between atoms: _33  and  _34
REMARK   14  A    between atoms: _33  and  _36
REMARK   15  A    between atoms: _36  and  _37
REMARK   16  A    between atoms: _40  and  _42
REMARK   17  A    between atoms: _42  and  _43
REMARK   18  A    between atoms: _42  and  _45
REMARK   19  A    between atoms: _45  and  _46
REMARK   20  A    between atoms: _49  and  _51
REMARK   21  A    between atoms: _51  and  _52
REMARK   22  A    between atoms: _51  and  _54
REMARK   23  A    between atoms: _54  and  _55
REMARK   24  A    between atoms: _58  and  _60
REMARK   25  A    between atoms: _60  and  _61
REMARK   26  A    between atoms: _60  and  _63
REMARK   27  A    between atoms: _63  and  _64
REMARK   28  A    between atoms: _69  and  _71
REMARK   29  A    between atoms: _71  and  _72
REMARK   30  A    between atoms: _71  and  _74
REMARK   31  A    between atoms: _74  and  _75
REMARK   32  A    between atoms: _80  and  _81
REMARK   33  A    between atoms: _83  and  _85
REMARK   34  A    between atoms: _85  and  _86
REMARK   35  A    between atoms: _89  and  _91
REMARK   36  A    between atoms: _91  and  _92
REMARK   37  A    between atoms: _91  and  _94
REMARK   38  A    between atoms: _94  and  _95
REMARK   39  A    between atoms: _95  and  _96
REMARK   40  A    between atoms: _96  and  _97
REMARK   41  A    between atoms: _97  and  _98
REMARK   42  A    between atoms: _102  and  _104
REMARK   43  A    between atoms: _104  and  _105
REMARK   44  A    between atoms: _104  and  _107
REMARK   45  A    between atoms: _107  and  _108
REMARK   46  A    between atoms: _111  and  _113
REMARK   47  A    between atoms: _113  and  _114
REMARK   48  A    between atoms: _113  and  _116
REMARK   49  A    between atoms: _116  and  _117
REMARK   50  A    between atoms: _119  and  _121
REMARK   51  A    between atoms: _121  and  _122
REMARK   52  A    between atoms: _121  and  _124
REMARK   53  A    between atoms: _124  and  _125
REMARK   54  A    between atoms: _125  and  _235
REMARK   55  A    between atoms: _126  and  _128
REMARK   56  A    between atoms: _128  and  _129
REMARK   57  A    between atoms: _128  and  _131
REMARK   58  A    between atoms: _131  and  _132
REMARK   59  A    between atoms: _132  and  _133
REMARK   60  A    between atoms: _138  and  _140
REMARK   61  A    between atoms: _140  and  _141
REMARK   62  A    between atoms: _143  and  _145
REMARK   63  A    between atoms: _145  and  _146
REMARK   64  A    between atoms: _145  and  _148
REMARK   65  A    between atoms: _148  and  _149
REMARK   66  A    between atoms: _152  and  _154
REMARK   67  A    between atoms: _154  and  _155
REMARK   68  A    between atoms: _154  and  _157
REMARK   69  A    between atoms: _157  and  _158
REMARK   70  A    between atoms: _160  and  _162
REMARK   71  A    between atoms: _162  and  _163
REMARK   72  A    between atoms: _165  and  _167
REMARK   73  A    between atoms: _167  and  _168
REMARK   74  A    between atoms: _170  and  _172
REMARK   75  A    between atoms: _172  and  _173
REMARK   76  A    between atoms: _172  and  _175
REMARK   77  A    between atoms: _175  and  _176
REMARK   78  A    between atoms: _179  and  _181
REMARK   79  A    between atoms: _181  and  _182
REMARK   80  A    between atoms: _181  and  _184
REMARK   81  A    between atoms: _187  and  _189
REMARK   82  A    between atoms: _189  and  _190
REMARK   83  A    between atoms: _189  and  _192
REMARK   84  A    between atoms: _192  and  _193
REMARK   85  A    between atoms: _195  and  _197
REMARK   86  A    between atoms: _197  and  _198
REMARK   87  A    between atoms: _197  and  _200
REMARK   88  A    between atoms: _200  and  _201
REMARK   89  A    between atoms: _211  and  _213
REMARK   90  A    between atoms: _213  and  _214
REMARK   91  A    between atoms: _216  and  _218
REMARK   92  A    between atoms: _218  and  _219
REMARK   93  A    between atoms: _218  and  _221
REMARK   94  A    between atoms: _221  and  _222
REMARK   95  A    between atoms: _224  and  _226
REMARK   96  A    between atoms: _226  and  _227
REMARK   97  A    between atoms: _229  and  _231
REMARK   98  A    between atoms: _231  and  _232
REMARK   99  A    between atoms: _231  and  _234
REMARK  100  A    between atoms: _234  and  _235
REMARK  101  A    between atoms: _236  and  _238
REMARK  102  A    between atoms: _238  and  _239
REMARK  103  A    between atoms: _242  and  _244
REMARK  104  A    between atoms: _244  and  _245
REMARK  105  A    between atoms: _244  and  _247
REMARK  106  A    between atoms: _247  and  _248
REMARK  107  A    between atoms: _248  and  _249
REMARK  108  A    between atoms: _254  and  _256
REMARK  109  A    between atoms: _256  and  _257
REMARK  110  A    between atoms: _256  and  _259
REMARK  111  A    between atoms: _259  and  _260
REMARK  112  A    between atoms: _260  and  _261
REMARK  113  A    between atoms: _261  and  _262
REMARK  114  A    between atoms: _262  and  _263
REMARK  115  A    between atoms: _268  and  _269
REMARK  116  A    between atoms: _274  and  _276
REMARK  117  A    between atoms: _276  and  _277
REMARK  118  A    between atoms: _279  and  _281
REMARK  119  A    between atoms: _281  and  _282
REMARK  120  A    between atoms: _281  and  _284
REMARK  121  A    between atoms: _287  and  _289
REMARK  122  A    between atoms: _289  and  _290
REMARK  123  A    between atoms: _289  and  _292
REMARK  124  A    between atoms: _292  and  _293
REMARK  125  A    between atoms: _298  and  _299
REMARK                            x       y       z     vdW  Elec       q    Type
REMARK                         _______ _______ _______ _____ _____    ______ ____
ROOT
ATOM      1  O   HOH     1      -3.798   8.601   9.929  0.00  0.00    +0.000 OA
ENDROOT
TORSDOF 0
REMARK  Name = ../refined-set-2016/3gy7/3gy7_pocket.pdb
REMARK  125 active torsions:
REMARK  status: ('A' for Active; 'I' for Inactive)
REMARK    1  A    between atoms: _1  and  _5
REMARK    2  A    between atoms: _5  and  _6
REMARK    3  A    between atoms: _5  and  _8
REMARK    4  A    between atoms: _8  and  _9
REMARK    5  A    between atoms: _12  and  _14
REMARK    6  A    between atoms: _14  and  _15
REMARK    7  A    between atoms: _14  and  _17
REMARK    8  A    between atoms: _20  and  _22
REMARK    9  A    between atoms: _22  and  _23
REMARK   10  A    between atoms: _22  and  _25
REMARK   11  A    between atoms: _25  and  _26
REMARK   12  A    between atoms: _31  and  _33
REMARK   13  A    between atoms: _33  and  _34
REMARK   14  A    between atoms: _33  and  _36
REMARK   15  A    between atoms: _36  and  _37
REMARK   16  A    between atoms: _40  and  _42
REMARK   17  A    between atoms: _42  and  _43
REMARK   18  A    between atoms: _42  and  _45
REMARK   19  A    between atoms: _45  and  _46
REMARK   20  A    between atoms: _49  and  _51
REMARK   21  A    between atoms: _51  and  _52
REMARK   22  A    between atoms: _51  and  _54
REMARK   23  A    between atoms: _54  and  _55
REMARK   24  A    between atoms: _58  and  _60
REMARK   25  A    between atoms: _60  and  _61
REMARK   26  A    between atoms: _60  and  _63
REMARK   27  A    between atoms: _63  and  _64
REMARK   28  A    between atoms: _69  and  _71
REMARK   29  A    between atoms: _71  and  _72
REMARK   30  A    between atoms: _71  and  _74
REMARK   31  A    between atoms: _74  and  _75
REMARK   32  A    between atoms: _80  and  _81
REMARK   33  A    between atoms: _83  and  _85
REMARK   34  A    between atoms: _85  and  _86
REMARK   35  A    between atoms: _89  and  _91
REMARK   36  A    between atoms: _91  and  _92
REMARK   37  A    between atoms: _91  and  _94
REMARK   38  A    between atoms: _94  and  _95
REMARK   39  A    between atoms: _95  and  _96
REMARK   40  A    between atoms: _96  and  _97
REMARK   41  A    between atoms: _97  and  _98
REMARK   42  A    between atoms: _102  and  _104
REMARK   43  A    between atoms: _104  and  _105
REMARK   44  A    between atoms: _104  and  _107
REMARK   45  A    between atoms: _107  and  _108
REMARK   46  A    between atoms: _111  and  _113
REMARK   47  A    between atoms: _113  and  _114
REMARK   48  A    between atoms: _113  and  _116
REMARK   49  A    between atoms: _116  and  _117
REMARK   50  A    between atoms: _119  and  _121
REMARK   51  A    between atoms: _121  and  _122
REMARK   52  A    between atoms: _121  and  _124
REMARK   53  A    between atoms: _124  and  _125
REMARK   54  A    between atoms: _125  and  _235
REMARK   55  A    between atoms: _126  and  _128
REMARK   56  A    between atoms: _128  and  _129
REMARK   57  A    between atoms: _128  and  _131
REMARK   58  A    between atoms: _131  and  _132
REMARK   59  A    between atoms: _132  and  _133
REMARK   60  A    between atoms: _138  and  _140
REMARK   61  A    between atoms: _140  and  _141
REMARK   62  A    between atoms: _143  and  _145
REMARK   63  A    between atoms: _145  and  _146
REMARK   64  A    between atoms: _145  and  _148
REMARK   65  A    between atoms: _148  and  _149
REMARK   66  A    between atoms: _152  and  _154
REMARK   67  A    between atoms: _154  and  _155
REMARK   68  A    between atoms: _154  and  _157
REMARK   69  A    between atoms: _157  and  _158
REMARK   70  A    between atoms: _160  and  _162
REMARK   71  A    between atoms: _162  and  _163
REMARK   72  A    between atoms: _165  and  _167
REMARK   73  A    between atoms: _167  and  _168
REMARK   74  A    between atoms: _170  and  _172
REMARK   75  A    between atoms: _172  and  _173
REMARK   76  A    between atoms: _172  and  _175
REMARK   77  A    between atoms: _175  and  _176
REMARK   78  A    between atoms: _179  and  _181
REMARK   79  A    between atoms: _181  and  _182
REMARK   80  A    between atoms: _181  and  _184
REMARK   81  A    between atoms: _187  and  _189
REMARK   82  A    between atoms: _189  and  _190
REMARK   83  A    between atoms: _189  and  _192
REMARK   84  A    between atoms: _192  and  _193
REMARK   85  A    between atoms: _195  and  _197
REMARK   86  A    between atoms: _197  and  _198
REMARK   87  A    between atoms: _197  and  _200
REMARK   88  A    between atoms: _200  and  _201
REMARK   89  A    between atoms: _211  and  _213
REMARK   90  A    between atoms: _213  and  _214
REMARK   91  A    between atoms: _216  and  _218
REMARK   92  A    between atoms: _218  and  _219
REMARK   93  A    between atoms: _218  and  _221
REMARK   94  A    between atoms: _221  and  _222
REMARK   95  A    between atoms: _224  and  _226
REMARK   96  A    between atoms: _226  and  _227
REMARK   97  A    between atoms: _229  and  _231
REMARK   98  A    between atoms: _231  and  _232
REMARK   99  A    between atoms: _231  and  _234
REMARK  100  A    between atoms: _234  and  _235
REMARK  101  A    between atoms: _236  and  _238
REMARK  102  A    between atoms: _238  and  _239
REMARK  103  A    between atoms: _242  and  _244
REMARK  104  A    between atoms: _244  and  _245
REMARK  105  A    between atoms: _244  and  _247
REMARK  106  A    between atoms: _247  and  _248
REMARK  107  A    between atoms: _248  and  _249
REMARK  108  A    between atoms: _254  and  _256
REMARK  109  A    between atoms: _256  and  _257
REMARK  110  A    between atoms: _256  and  _259
REMARK  111  A    between atoms: _259  and  _260
REMARK  112  A    between atoms: _260  and  _261
REMARK  113  A    between atoms: _261  and  _262
REMARK  114  A    between atoms: _262  and  _263
REMARK  115  A    between atoms: _268  and  _269
REMARK  116  A    between atoms: _274  and  _276
REMARK  117  A    between atoms: _276  and  _277
REMARK  118  A    between atoms: _279  and  _281
REMARK  119  A    between atoms: _281  and  _282
REMARK  120  A    between atoms: _281  and  _284
REMARK  121  A    between atoms: _287  and  _289
REMARK  122  A    between atoms: _289  and  _290
REMARK  123  A    between atoms: _289  and  _292
REMARK  124  A    between atoms: _292  and  _293
REMARK  125  A    between atoms: _298  and  _299
REMARK                            x       y       z     vdW  Elec       q    Type
REMARK                         _______ _______ _______ _____ _____    ______ ____
ROOT
ATOM      1  O   HOH     1       0.788  19.058  25.104  0.00  0.00    +0.000 OA
ENDROOT
TORSDOF 0
REMARK  Name = ../refined-set-2016/3gy7/3gy7_pocket.pdb
REMARK  125 active torsions:
REMARK  status: ('A' for Active; 'I' for Inactive)
REMARK    1  A    between atoms: _1  and  _5
REMARK    2  A    between atoms: _5  and  _6
REMARK    3  A    between atoms: _5  and  _8
REMARK    4  A    between atoms: _8  and  _9
REMARK    5  A    between atoms: _12  and  _14
REMARK    6  A    between atoms: _14  and  _15
REMARK    7  A    between atoms: _14  and  _17
REMARK    8  A    between atoms: _20  and  _22
REMARK    9  A    between atoms: _22  and  _23
REMARK   10  A    between atoms: _22  and  _25
REMARK   11  A    between atoms: _25  and  _26
REMARK   12  A    between atoms: _31  and  _33
REMARK   13  A    between atoms: _33  and  _34
REMARK   14  A    between atoms: _33  and  _36
REMARK   15  A    between atoms: _36  and  _37
REMARK   16  A    between atoms: _40  and  _42
REMARK   17  A    between atoms: _42  and  _43
REMARK   18  A    between atoms: _42  and  _45
REMARK   19  A    between atoms: _45  and  _46
REMARK   20  A    between atoms: _49  and  _51
REMARK   21  A    between atoms: _51  and  _52
REMARK   22  A    between atoms: _51  and  _54
REMARK   23  A    between atoms: _54  and  _55
REMARK   24  A    between atoms: _58  and  _60
REMARK   25  A    between atoms: _60  and  _61
REMARK   26  A    between atoms: _60  and  _63
REMARK   27  A    between atoms: _63  and  _64
REMARK   28  A    between atoms: _69  and  _71
REMARK   29  A    between atoms: _71  and  _72
REMARK   30  A    between atoms: _71  and  _74
REMARK   31  A    between atoms: _74  and  _75
REMARK   32  A    between atoms: _80  and  _81
REMARK   33  A    between atoms: _83  and  _85
REMARK   34  A    between atoms: _85  and  _86
REMARK   35  A    between atoms: _89  and  _91
REMARK   36  A    between atoms: _91  and  _92
REMARK   37  A    between atoms: _91  and  _94
REMARK   38  A    between atoms: _94  and  _95
REMARK   39  A    between atoms: _95  and  _96
REMARK   40  A    between atoms: _96  and  _97
REMARK   41  A    between atoms: _97  and  _98
REMARK   42  A    between atoms: _102  and  _104
REMARK   43  A    between atoms: _104  and  _105
REMARK   44  A    between atoms: _104  and  _107
REMARK   45  A    between atoms: _107  and  _108
REMARK   46  A    between atoms: _111  and  _113
REMARK   47  A    between atoms: _113  and  _114
REMARK   48  A    between atoms: _113  and  _116
REMARK   49  A    between atoms: _116  and  _117
REMARK   50  A    between atoms: _119  and  _121
REMARK   51  A    between atoms: _121  and  _122
REMARK   52  A    between atoms: _121  and  _124
REMARK   53  A    between atoms: _124  and  _125
REMARK   54  A    between atoms: _125  and  _235
REMARK   55  A    between atoms: _126  and  _128
REMARK   56  A    between atoms: _128  and  _129
REMARK   57  A    between atoms: _128  and  _131
REMARK   58  A    between atoms: _131  and  _132
REMARK   59  A    between atoms: _132  and  _133
REMARK   60  A    between atoms: _138  and  _140
REMARK   61  A    between atoms: _140  and  _141
REMARK   62  A    between atoms: _143  and  _145
REMARK   63  A    between atoms: _145  and  _146
REMARK   64  A    between atoms: _145  and  _148
REMARK   65  A    between atoms: _148  and  _149
REMARK   66  A    between atoms: _152  and  _154
REMARK   67  A    between atoms: _154  and  _155
REMARK   68  A    between atoms: _154  and  _157
REMARK   69  A    between atoms: _157  and  _158
REMARK   70  A    between atoms: _160  and  _162
REMARK   71  A    between atoms: _162  and  _163
REMARK   72  A    between atoms: _165  and  _167
REMARK   73  A    between atoms: _167  and  _168
REMARK   74  A    between atoms: _170  and  _172
REMARK   75  A    between atoms: _172  and  _173
REMARK   76  A    between atoms: _172  and  _175
REMARK   77  A    between atoms: _175  and  _176
REMARK   78  A    between atoms: _179  and  _181
REMARK   79  A    between atoms: _181  and  _182
REMARK   80  A    between atoms: _181  and  _184
REMARK   81  A    between atoms: _187  and  _189
REMARK   82  A    between atoms: _189  and  _190
REMARK   83  A    between atoms: _189  and  _192
REMARK   84  A    between atoms: _192  and  _193
REMARK   85  A    between atoms: _195  and  _197
REMARK   86  A    between atoms: _197  and  _198
REMARK   87  A    between atoms: _197  and  _200
REMARK   88  A    between atoms: _200  and  _201
REMARK   89  A    between atoms: _211  and  _213
REMARK   90  A    between atoms: _213  and  _214
REMARK   91  A    between atoms: _216  and  _218
REMARK   92  A    between atoms: _218  and  _219
REMARK   93  A    between atoms: _218  and  _221
REMARK   94  A    between atoms: _221  and  _222
REMARK   95  A    between atoms: _224  and  _226
REMARK   96  A    between atoms: _226  and  _227
REMARK   97  A    between atoms: _229  and  _231
REMARK   98  A    between atoms: _231  and  _232
REMARK   99  A    between atoms: _231  and  _234
REMARK  100  A    between atoms: _234  and  _235
REMARK  101  A    between atoms: _236  and  _238
REMARK  102  A    between atoms: _238  and  _239
REMARK  103  A    between atoms: _242  and  _244
REMARK  104  A    between atoms: _244  and  _245
REMARK  105  A    between atoms: _244  and  _247
REMARK  106  A    between atoms: _247  and  _248
REMARK  107  A    between atoms: _248  and  _249
REMARK  108  A    between atoms: _254  and  _256
REMARK  109  A    between atoms: _256  and  _257
REMARK  110  A    between atoms: _256  and  _259
REMARK  111  A    between atoms: _259  and  _260
REMARK  112  A    between atoms: _260  and  _261
REMARK  113  A    between atoms: _261  and  _262
REMARK  114  A    between atoms: _262  and  _263
REMARK  115  A    between atoms: _268  and  _269
REMARK  116  A    between atoms: _274  and  _276
REMARK  117  A    between atoms: _276  and  _277
REMARK  118  A    between atoms: _279  and  _281
REMARK  119  A    between atoms: _281  and  _282
REMARK  120  A    between atoms: _281  and  _284
REMARK  121  A    between atoms: _287  and  _289
REMARK  122  A    between atoms: _289  and  _290
REMARK  123  A    between atoms: _289  and  _292
REMARK  124  A    between atoms: _292  and  _293
REMARK  125  A    between atoms: _298  and  _299
REMARK                            x       y       z     vdW  Elec       q    Type
REMARK                         _______ _______ _______ _____ _____    ______ ____
ROOT
ATOM      1  O   HOH     1       1.757  17.666  19.082  0.00  0.00    +0.000 OA
ENDROOT
TORSDOF 0
REMARK  Name = ../refined-set-2016/3gy7/3gy7_pocket.pdb
REMARK  125 active torsions:
REMARK  status: ('A' for Active; 'I' for Inactive)
REMARK    1  A    between atoms: _1  and  _5
REMARK    2  A    between atoms: _5  and  _6
REMARK    3  A    between atoms: _5  and  _8
REMARK    4  A    between atoms: _8  and  _9
REMARK    5  A    between atoms: _12  and  _14
REMARK    6  A    between atoms: _14  and  _15
REMARK    7  A    between atoms: _14  and  _17
REMARK    8  A    between atoms: _20  and  _22
REMARK    9  A    between atoms: _22  and  _23
REMARK   10  A    between atoms: _22  and  _25
REMARK   11  A    between atoms: _25  and  _26
REMARK   12  A    between atoms: _31  and  _33
REMARK   13  A    between atoms: _33  and  _34
REMARK   14  A    between atoms: _33  and  _36
REMARK   15  A    between atoms: _36  and  _37
REMARK   16  A    between atoms: _40  and  _42
REMARK   17  A    between atoms: _42  and  _43
REMARK   18  A    between atoms: _42  and  _45
REMARK   19  A    between atoms: _45  and  _46
REMARK   20  A    between atoms: _49  and  _51
REMARK   21  A    between atoms: _51  and  _52
REMARK   22  A    between atoms: _51  and  _54
REMARK   23  A    between atoms: _54  and  _55
REMARK   24  A    between atoms: _58  and  _60
REMARK   25  A    between atoms: _60  and  _61
REMARK   26  A    between atoms: _60  and  _63
REMARK   27  A    between atoms: _63  and  _64
REMARK   28  A    between atoms: _69  and  _71
REMARK   29  A    between atoms: _71  and  _72
REMARK   30  A    between atoms: _71  and  _74
REMARK   31  A    between atoms: _74  and  _75
REMARK   32  A    between atoms: _80  and  _81
REMARK   33  A    between atoms: _83  and  _85
REMARK   34  A    between atoms: _85  and  _86
REMARK   35  A    between atoms: _89  and  _91
REMARK   36  A    between atoms: _91  and  _92
REMARK   37  A    between atoms: _91  and  _94
REMARK   38  A    between atoms: _94  and  _95
REMARK   39  A    between atoms: _95  and  _96
REMARK   40  A    between atoms: _96  and  _97
REMARK   41  A    between atoms: _97  and  _98
REMARK   42  A    between atoms: _102  and  _104
REMARK   43  A    between atoms: _104  and  _105
REMARK   44  A    between atoms: _104  and  _107
REMARK   45  A    between atoms: _107  and  _108
REMARK   46  A    between atoms: _111  and  _113
REMARK   47  A    between atoms: _113  and  _114
REMARK   48  A    between atoms: _113  and  _116
REMARK   49  A    between atoms: _116  and  _117
REMARK   50  A    between atoms: _119  and  _121
REMARK   51  A    between atoms: _121  and  _122
REMARK   52  A    between atoms: _121  and  _124
REMARK   53  A    between atoms: _124  and  _125
REMARK   54  A    between atoms: _125  and  _235
REMARK   55  A    between atoms: _126  and  _128
REMARK   56  A    between atoms: _128  and  _129
REMARK   57  A    between atoms: _128  and  _131
REMARK   58  A    between atoms: _131  and  _132
REMARK   59  A    between atoms: _132  and  _133
REMARK   60  A    between atoms: _138  and  _140
REMARK   61  A    between atoms: _140  and  _141
REMARK   62  A    between atoms: _143  and  _145
REMARK   63  A    between atoms: _145  and  _146
REMARK   64  A    between atoms: _145  and  _148
REMARK   65  A    between atoms: _148  and  _149
REMARK   66  A    between atoms: _152  and  _154
REMARK   67  A    between atoms: _154  and  _155
REMARK   68  A    between atoms: _154  and  _157
REMARK   69  A    between atoms: _157  and  _158
REMARK   70  A    between atoms: _160  and  _162
REMARK   71  A    between atoms: _162  and  _163
REMARK   72  A    between atoms: _165  and  _167
REMARK   73  A    between atoms: _167  and  _168
REMARK   74  A    between atoms: _170  and  _172
REMARK   75  A    between atoms: _172  and  _173
REMARK   76  A    between atoms: _172  and  _175
REMARK   77  A    between atoms: _175  and  _176
REMARK   78  A    between atoms: _179  and  _181
REMARK   79  A    between atoms: _181  and  _182
REMARK   80  A    between atoms: _181  and  _184
REMARK   81  A    between atoms: _187  and  _189
REMARK   82  A    between atoms: _189  and  _190
REMARK   83  A    between atoms: _189  and  _192
REMARK   84  A    between atoms: _192  and  _193
REMARK   85  A    between atoms: _195  and  _197
REMARK   86  A    between atoms: _197  and  _198
REMARK   87  A    between atoms: _197  and  _200
REMARK   88  A    between atoms: _200  and  _201
REMARK   89  A    between atoms: _211  and  _213
REMARK   90  A    between atoms: _213  and  _214
REMARK   91  A    between atoms: _216  and  _218
REMARK   92  A    between atoms: _218  and  _219
REMARK   93  A    between atoms: _218  and  _221
REMARK   94  A    between atoms: _221  and  _222
REMARK   95  A    between atoms: _224  and  _226
REMARK   96  A    between atoms: _226  and  _227
REMARK   97  A    between atoms: _229  and  _231
REMARK   98  A    between atoms: _231  and  _232
REMARK   99  A    between atoms: _231  and  _234
REMARK  100  A    between atoms: _234  and  _235
REMARK  101  A    between atoms: _236  and  _238
REMARK  102  A    between atoms: _238  and  _239
REMARK  103  A    between atoms: _242  and  _244
REMARK  104  A    between atoms: _244  and  _245
REMARK  105  A    between atoms: _244  and  _247
REMARK  106  A    between atoms: _247  and  _248
REMARK  107  A    between atoms: _248  and  _249
REMARK  108  A    between atoms: _254  and  _256
REMARK  109  A    between atoms: _256  and  _257
REMARK  110  A    between atoms: _256  and  _259
REMARK  111  A    between atoms: _259  and  _260
REMARK  112  A    between atoms: _260  and  _261
REMARK  113  A    between atoms: _261  and  _262
REMARK  114  A    between atoms: _262  and  _263
REMARK  115  A    between atoms: _268  and  _269
REMARK  116  A    between atoms: _274  and  _276
REMARK  117  A    between atoms: _276  and  _277
REMARK  118  A    between atoms: _279  and  _281
REMARK  119  A    between atoms: _281  and  _282
REMARK  120  A    between atoms: _281  and  _284
REMARK  121  A    between atoms: _287  and  _289
REMARK  122  A    between atoms: _289  and  _290
REMARK  123  A    between atoms: _289  and  _292
REMARK  124  A    between atoms: _292  and  _293
REMARK  125  A    between atoms: _298  and  _299
REMARK                            x       y       z     vdW  Elec       q    Type
REMARK                         _______ _______ _______ _____ _____    ______ ____
ROOT
ATOM      1  O   HOH     1      -2.166  20.032  14.848  0.00  0.00    +0.000 OA
ENDROOT
TORSDOF 0
REMARK  Name = ../refined-set-2016/3gy7/3gy7_pocket.pdb
REMARK  125 active torsions:
REMARK  status: ('A' for Active; 'I' for Inactive)
REMARK    1  A    between atoms: _1  and  _5
REMARK    2  A    between atoms: _5  and  _6
REMARK    3  A    between atoms: _5  and  _8
REMARK    4  A    between atoms: _8  and  _9
REMARK    5  A    between atoms: _12  and  _14
REMARK    6  A    between atoms: _14  and  _15
REMARK    7  A    between atoms: _14  and  _17
REMARK    8  A    between atoms: _20  and  _22
REMARK    9  A    between atoms: _22  and  _23
REMARK   10  A    between atoms: _22  and  _25
REMARK   11  A    between atoms: _25  and  _26
REMARK   12  A    between atoms: _31  and  _33
REMARK   13  A    between atoms: _33  and  _34
REMARK   14  A    between atoms: _33  and  _36
REMARK   15  A    between atoms: _36  and  _37
REMARK   16  A    between atoms: _40  and  _42
REMARK   17  A    between atoms: _42  and  _43
REMARK   18  A    between atoms: _42  and  _45
REMARK   19  A    between atoms: _45  and  _46
REMARK   20  A    between atoms: _49  and  _51
REMARK   21  A    between atoms: _51  and  _52
REMARK   22  A    between atoms: _51  and  _54
REMARK   23  A    between atoms: _54  and  _55
REMARK   24  A    between atoms: _58  and  _60
REMARK   25  A    between atoms: _60  and  _61
REMARK   26  A    between atoms: _60  and  _63
REMARK   27  A    between atoms: _63  and  _64
REMARK   28  A    between atoms: _69  and  _71
REMARK   29  A    between atoms: _71  and  _72
REMARK   30  A    between atoms: _71  and  _74
REMARK   31  A    between atoms: _74  and  _75
REMARK   32  A    between atoms: _80  and  _81
REMARK   33  A    between atoms: _83  and  _85
REMARK   34  A    between atoms: _85  and  _86
REMARK   35  A    between atoms: _89  and  _91
REMARK   36  A    between atoms: _91  and  _92
REMARK   37  A    between atoms: _91  and  _94
REMARK   38  A    between atoms: _94  and  _95
REMARK   39  A    between atoms: _95  and  _96
REMARK   40  A    between atoms: _96  and  _97
REMARK   41  A    between atoms: _97  and  _98
REMARK   42  A    between atoms: _102  and  _104
REMARK   43  A    between atoms: _104  and  _105
REMARK   44  A    between atoms: _104  and  _107
REMARK   45  A    between atoms: _107  and  _108
REMARK   46  A    between atoms: _111  and  _113
REMARK   47  A    between atoms: _113  and  _114
REMARK   48  A    between atoms: _113  and  _116
REMARK   49  A    between atoms: _116  and  _117
REMARK   50  A    between atoms: _119  and  _121
REMARK   51  A    between atoms: _121  and  _122
REMARK   52  A    between atoms: _121  and  _124
REMARK   53  A    between atoms: _124  and  _125
REMARK   54  A    between atoms: _125  and  _235
REMARK   55  A    between atoms: _126  and  _128
REMARK   56  A    between atoms: _128  and  _129
REMARK   57  A    between atoms: _128  and  _131
REMARK   58  A    between atoms: _131  and  _132
REMARK   59  A    between atoms: _132  and  _133
REMARK   60  A    between atoms: _138  and  _140
REMARK   61  A    between atoms: _140  and  _141
REMARK   62  A    between atoms: _143  and  _145
REMARK   63  A    between atoms: _145  and  _146
REMARK   64  A    between atoms: _145  and  _148
REMARK   65  A    between atoms: _148  and  _149
REMARK   66  A    between atoms: _152  and  _154
REMARK   67  A    between atoms: _154  and  _155
REMARK   68  A    between atoms: _154  and  _157
REMARK   69  A    between atoms: _157  and  _158
REMARK   70  A    between atoms: _160  and  _162
REMARK   71  A    between atoms: _162  and  _163
REMARK   72  A    between atoms: _165  and  _167
REMARK   73  A    between atoms: _167  and  _168
REMARK   74  A    between atoms: _170  and  _172
REMARK   75  A    between atoms: _172  and  _173
REMARK   76  A    between atoms: _172  and  _175
REMARK   77  A    between atoms: _175  and  _176
REMARK   78  A    between atoms: _179  and  _181
REMARK   79  A    between atoms: _181  and  _182
REMARK   80  A    between atoms: _181  and  _184
REMARK   81  A    between atoms: _187  and  _189
REMARK   82  A    between atoms: _189  and  _190
REMARK   83  A    between atoms: _189  and  _192
REMARK   84  A    between atoms: _192  and  _193
REMARK   85  A    between atoms: _195  and  _197
REMARK   86  A    between atoms: _197  and  _198
REMARK   87  A    between atoms: _197  and  _200
REMARK   88  A    between atoms: _200  and  _201
REMARK   89  A    between atoms: _211  and  _213
REMARK   90  A    between atoms: _213  and  _214
REMARK   91  A    between atoms: _216  and  _218
REMARK   92  A    between atoms: _218  and  _219
REMARK   93  A    between atoms: _218  and  _221
REMARK   94  A    between atoms: _221  and  _222
REMARK   95  A    between atoms: _224  and  _226
REMARK   96  A    between atoms: _226  and  _227
REMARK   97  A    between atoms: _229  and  _231
REMARK   98  A    between atoms: _231  and  _232
REMARK   99  A    between atoms: _231  and  _234
REMARK  100  A    between atoms: _234  and  _235
REMARK  101  A    between atoms: _236  and  _238
REMARK  102  A    between atoms: _238  and  _239
REMARK  103  A    between atoms: _242  and  _244
REMARK  104  A    between atoms: _244  and  _245
REMARK  105  A    between atoms: _244  and  _247
REMARK  106  A    between atoms: _247  and  _248
REMARK  107  A    between atoms: _248  and  _249
REMARK  108  A    between atoms: _254  and  _256
REMARK  109  A    between atoms: _256  and  _257
REMARK  110  A    between atoms: _256  and  _259
REMARK  111  A    between atoms: _259  and  _260
REMARK  112  A    between atoms: _260  and  _261
REMARK  113  A    between atoms: _261  and  _262
REMARK  114  A    between atoms: _262  and  _263
REMARK  115  A    between atoms: _268  and  _269
REMARK  116  A    between atoms: _274  and  _276
REMARK  117  A    between atoms: _276  and  _277
REMARK  118  A    between atoms: _279  and  _281
REMARK  119  A    between atoms: _281  and  _282
REMARK  120  A    between atoms: _281  and  _284
REMARK  121  A    between atoms: _287  and  _289
REMARK  122  A    between atoms: _289  and  _290
REMARK  123  A    between atoms: _289  and  _292
REMARK  124  A    between atoms: _292  and  _293
REMARK  125  A    between atoms: _298  and  _299
REMARK                            x       y       z     vdW  Elec       q    Type
REMARK                         _______ _______ _______ _____ _____    ______ ____
ROOT
ATOM      1  O   HOH     1      -4.171  11.269   6.862  0.00  0.00    +0.000 OA
ENDROOT
TORSDOF 0
REMARK  Name = ../refined-set-2016/3gy7/3gy7_pocket.pdb
REMARK  125 active torsions:
REMARK  status: ('A' for Active; 'I' for Inactive)
REMARK    1  A    between atoms: _1  and  _5
REMARK    2  A    between atoms: _5  and  _6
REMARK    3  A    between atoms: _5  and  _8
REMARK    4  A    between atoms: _8  and  _9
REMARK    5  A    between atoms: _12  and  _14
REMARK    6  A    between atoms: _14  and  _15
REMARK    7  A    between atoms: _14  and  _17
REMARK    8  A    between atoms: _20  and  _22
REMARK    9  A    between atoms: _22  and  _23
REMARK   10  A    between atoms: _22  and  _25
REMARK   11  A    between atoms: _25  and  _26
REMARK   12  A    between atoms: _31  and  _33
REMARK   13  A    between atoms: _33  and  _34
REMARK   14  A    between atoms: _33  and  _36
REMARK   15  A    between atoms: _36  and  _37
REMARK   16  A    between atoms: _40  and  _42
REMARK   17  A    between atoms: _42  and  _43
REMARK   18  A    between atoms: _42  and  _45
REMARK   19  A    between atoms: _45  and  _46
REMARK   20  A    between atoms: _49  and  _51
REMARK   21  A    between atoms: _51  and  _52
REMARK   22  A    between atoms: _51  and  _54
REMARK   23  A    between atoms: _54  and  _55
REMARK   24  A    between atoms: _58  and  _60
REMARK   25  A    between atoms: _60  and  _61
REMARK   26  A    between atoms: _60  and  _63
REMARK   27  A    between atoms: _63  and  _64
REMARK   28  A    between atoms: _69  and  _71
REMARK   29  A    between atoms: _71  and  _72
REMARK   30  A    between atoms: _71  and  _74
REMARK   31  A    between atoms: _74  and  _75
REMARK   32  A    between atoms: _80  and  _81
REMARK   33  A    between atoms: _83  and  _85
REMARK   34  A    between atoms: _85  and  _86
REMARK   35  A    between atoms: _89  and  _91
REMARK   36  A    between atoms: _91  and  _92
REMARK   37  A    between atoms: _91  and  _94
REMARK   38  A    between atoms: _94  and  _95
REMARK   39  A    between atoms: _95  and  _96
REMARK   40  A    between atoms: _96  and  _97
REMARK   41  A    between atoms: _97  and  _98
REMARK   42  A    between atoms: _102  and  _104
REMARK   43  A    between atoms: _104  and  _105
REMARK   44  A    between atoms: _104  and  _107
REMARK   45  A    between atoms: _107  and  _108
REMARK   46  A    between atoms: _111  and  _113
REMARK   47  A    between atoms: _113  and  _114
REMARK   48  A    between atoms: _113  and  _116
REMARK   49  A    between atoms: _116  and  _117
REMARK   50  A    between atoms: _119  and  _121
REMARK   51  A    between atoms: _121  and  _122
REMARK   52  A    between atoms: _121  and  _124
REMARK   53  A    between atoms: _124  and  _125
REMARK   54  A    between atoms: _125  and  _235
REMARK   55  A    between atoms: _126  and  _128
REMARK   56  A    between atoms: _128  and  _129
REMARK   57  A    between atoms: _128  and  _131
REMARK   58  A    between atoms: _131  and  _132
REMARK   59  A    between atoms: _132  and  _133
REMARK   60  A    between atoms: _138  and  _140
REMARK   61  A    between atoms: _140  and  _141
REMARK   62  A    between atoms: _143  and  _145
REMARK   63  A    between atoms: _145  and  _146
REMARK   64  A    between atoms: _145  and  _148
REMARK   65  A    between atoms: _148  and  _149
REMARK   66  A    between atoms: _152  and  _154
REMARK   67  A    between atoms: _154  and  _155
REMARK   68  A    between atoms: _154  and  _157
REMARK   69  A    between atoms: _157  and  _158
REMARK   70  A    between atoms: _160  and  _162
REMARK   71  A    between atoms: _162  and  _163
REMARK   72  A    between atoms: _165  and  _167
REMARK   73  A    between atoms: _167  and  _168
REMARK   74  A    between atoms: _170  and  _172
REMARK   75  A    between atoms: _172  and  _173
REMARK   76  A    between atoms: _172  and  _175
REMARK   77  A    between atoms: _175  and  _176
REMARK   78  A    between atoms: _179  and  _181
REMARK   79  A    between atoms: _181  and  _182
REMARK   80  A    between atoms: _181  and  _184
REMARK   81  A    between atoms: _187  and  _189
REMARK   82  A    between atoms: _189  and  _190
REMARK   83  A    between atoms: _189  and  _192
REMARK   84  A    between atoms: _192  and  _193
REMARK   85  A    between atoms: _195  and  _197
REMARK   86  A    between atoms: _197  and  _198
REMARK   87  A    between atoms: _197  and  _200
REMARK   88  A    between atoms: _200  and  _201
REMARK   89  A    between atoms: _211  and  _213
REMARK   90  A    between atoms: _213  and  _214
REMARK   91  A    between atoms: _216  and  _218
REMARK   92  A    between atoms: _218  and  _219
REMARK   93  A    between atoms: _218  and  _221
REMARK   94  A    between atoms: _221  and  _222
REMARK   95  A    between atoms: _224  and  _226
REMARK   96  A    between atoms: _226  and  _227
REMARK   97  A    between atoms: _229  and  _231
REMARK   98  A    between atoms: _231  and  _232
REMARK   99  A    between atoms: _231  and  _234
REMARK  100  A    between atoms: _234  and  _235
REMARK  101  A    between atoms: _236  and  _238
REMARK  102  A    between atoms: _238  and  _239
REMARK  103  A    between atoms: _242  and  _244
REMARK  104  A    between atoms: _244  and  _245
REMARK  105  A    between atoms: _244  and  _247
REMARK  106  A    between atoms: _247  and  _248
REMARK  107  A    between atoms: _248  and  _249
REMARK  108  A    between atoms: _254  and  _256
REMARK  109  A    between atoms: _256  and  _257
REMARK  110  A    between atoms: _256  and  _259
REMARK  111  A    between atoms: _259  and  _260
REMARK  112  A    between atoms: _260  and  _261
REMARK  113  A    between atoms: _261  and  _262
REMARK  114  A    between atoms: _262  and  _263
REMARK  115  A    between atoms: _268  and  _269
REMARK  116  A    between atoms: _274  and  _276
REMARK  117  A    between atoms: _276  and  _277
REMARK  118  A    between atoms: _279  and  _281
REMARK  119  A    between atoms: _281  and  _282
REMARK  120  A    between atoms: _281  and  _284
REMARK  121  A    between atoms: _287  and  _289
REMARK  122  A    between atoms: _289  and  _290
REMARK  123  A    between atoms: _289  and  _292
REMARK  124  A    between atoms: _292  and  _293
REMARK  125  A    between atoms: _298  and  _299
REMARK                            x       y       z     vdW  Elec       q    Type
REMARK                         _______ _______ _______ _____ _____    ______ ____
ROOT
ATOM      1  O   HOH     1       0.594  18.365  16.718  0.00  0.00    +0.000 OA
ENDROOT
TORSDOF 0
REMARK  Name = ../refined-set-2016/3gy7/3gy7_pocket.pdb
REMARK  125 active torsions:
REMARK  status: ('A' for Active; 'I' for Inactive)
REMARK    1  A    between atoms: _1  and  _5
REMARK    2  A    between atoms: _5  and  _6
REMARK    3  A    between atoms: _5  and  _8
REMARK    4  A    between atoms: _8  and  _9
REMARK    5  A    between atoms: _12  and  _14
REMARK    6  A    between atoms: _14  and  _15
REMARK    7  A    between atoms: _14  and  _17
REMARK    8  A    between atoms: _20  and  _22
REMARK    9  A    between atoms: _22  and  _23
REMARK   10  A    between atoms: _22  and  _25
REMARK   11  A    between atoms: _25  and  _26
REMARK   12  A    between atoms: _31  and  _33
REMARK   13  A    between atoms: _33  and  _34
REMARK   14  A    between atoms: _33  and  _36
REMARK   15  A    between atoms: _36  and  _37
REMARK   16  A    between atoms: _40  and  _42
REMARK   17  A    between atoms: _42  and  _43
REMARK   18  A    between atoms: _42  and  _45
REMARK   19  A    between atoms: _45  and  _46
REMARK   20  A    between atoms: _49  and  _51
REMARK   21  A    between atoms: _51  and  _52
REMARK   22  A    between atoms: _51  and  _54
REMARK   23  A    between atoms: _54  and  _55
REMARK   24  A    between atoms: _58  and  _60
REMARK   25  A    between atoms: _60  and  _61
REMARK   26  A    between atoms: _60  and  _63
REMARK   27  A    between atoms: _63  and  _64
REMARK   28  A    between atoms: _69  and  _71
REMARK   29  A    between atoms: _71  and  _72
REMARK   30  A    between atoms: _71  and  _74
REMARK   31  A    between atoms: _74  and  _75
REMARK   32  A    between atoms: _80  and  _81
REMARK   33  A    between atoms: _83  and  _85
REMARK   34  A    between atoms: _85  and  _86
REMARK   35  A    between atoms: _89  and  _91
REMARK   36  A    between atoms: _91  and  _92
REMARK   37  A    between atoms: _91  and  _94
REMARK   38  A    between atoms: _94  and  _95
REMARK   39  A    between atoms: _95  and  _96
REMARK   40  A    between atoms: _96  and  _97
REMARK   41  A    between atoms: _97  and  _98
REMARK   42  A    between atoms: _102  and  _104
REMARK   43  A    between atoms: _104  and  _105
REMARK   44  A    between atoms: _104  and  _107
REMARK   45  A    between atoms: _107  and  _108
REMARK   46  A    between atoms: _111  and  _113
REMARK   47  A    between atoms: _113  and  _114
REMARK   48  A    between atoms: _113  and  _116
REMARK   49  A    between atoms: _116  and  _117
REMARK   50  A    between atoms: _119  and  _121
REMARK   51  A    between atoms: _121  and  _122
REMARK   52  A    between atoms: _121  and  _124
REMARK   53  A    between atoms: _124  and  _125
REMARK   54  A    between atoms: _125  and  _235
REMARK   55  A    between atoms: _126  and  _128
REMARK   56  A    between atoms: _128  and  _129
REMARK   57  A    between atoms: _128  and  _131
REMARK   58  A    between atoms: _131  and  _132
REMARK   59  A    between atoms: _132  and  _133
REMARK   60  A    between atoms: _138  and  _140
REMARK   61  A    between atoms: _140  and  _141
REMARK   62  A    between atoms: _143  and  _145
REMARK   63  A    between atoms: _145  and  _146
REMARK   64  A    between atoms: _145  and  _148
REMARK   65  A    between atoms: _148  and  _149
REMARK   66  A    between atoms: _152  and  _154
REMARK   67  A    between atoms: _154  and  _155
REMARK   68  A    between atoms: _154  and  _157
REMARK   69  A    between atoms: _157  and  _158
REMARK   70  A    between atoms: _160  and  _162
REMARK   71  A    between atoms: _162  and  _163
REMARK   72  A    between atoms: _165  and  _167
REMARK   73  A    between atoms: _167  and  _168
REMARK   74  A    between atoms: _170  and  _172
REMARK   75  A    between atoms: _172  and  _173
REMARK   76  A    between atoms: _172  and  _175
REMARK   77  A    between atoms: _175  and  _176
REMARK   78  A    between atoms: _179  and  _181
REMARK   79  A    between atoms: _181  and  _182
REMARK   80  A    between atoms: _181  and  _184
REMARK   81  A    between atoms: _187  and  _189
REMARK   82  A    between atoms: _189  and  _190
REMARK   83  A    between atoms: _189  and  _192
REMARK   84  A    between atoms: _192  and  _193
REMARK   85  A    between atoms: _195  and  _197
REMARK   86  A    between atoms: _197  and  _198
REMARK   87  A    between atoms: _197  and  _200
REMARK   88  A    between atoms: _200  and  _201
REMARK   89  A    between atoms: _211  and  _213
REMARK   90  A    between atoms: _213  and  _214
REMARK   91  A    between atoms: _216  and  _218
REMARK   92  A    between atoms: _218  and  _219
REMARK   93  A    between atoms: _218  and  _221
REMARK   94  A    between atoms: _221  and  _222
REMARK   95  A    between atoms: _224  and  _226
REMARK   96  A    between atoms: _226  and  _227
REMARK   97  A    between atoms: _229  and  _231
REMARK   98  A    between atoms: _231  and  _232
REMARK   99  A    between atoms: _231  and  _234
REMARK  100  A    between atoms: _234  and  _235
REMARK  101  A    between atoms: _236  and  _238
REMARK  102  A    between atoms: _238  and  _239
REMARK  103  A    between atoms: _242  and  _244
REMARK  104  A    between atoms: _244  and  _245
REMARK  105  A    between atoms: _244  and  _247
REMARK  106  A    between atoms: _247  and  _248
REMARK  107  A    between atoms: _248  and  _249
REMARK  108  A    between atoms: _254  and  _256
REMARK  109  A    between atoms: _256  and  _257
REMARK  110  A    between atoms: _256  and  _259
REMARK  111  A    between atoms: _259  and  _260
REMARK  112  A    between atoms: _260  and  _261
REMARK  113  A    between atoms: _261  and  _262
REMARK  114  A    between atoms: _262  and  _263
REMARK  115  A    between atoms: _268  and  _269
REMARK  116  A    between atoms: _274  and  _276
REMARK  117  A    between atoms: _276  and  _277
REMARK  118  A    between atoms: _279  and  _281
REMARK  119  A    between atoms: _281  and  _282
REMARK  120  A    between atoms: _281  and  _284
REMARK  121  A    between atoms: _287  and  _289
REMARK  122  A    between atoms: _289  and  _290
REMARK  123  A    between atoms: _289  and  _292
REMARK  124  A    between atoms: _292  and  _293
REMARK  125  A    between atoms: _298  and  _299
REMARK                            x       y       z     vdW  Elec       q    Type
REMARK                         _______ _______ _______ _____ _____    ______ ____
ROOT
ATOM      1  O   HOH     1       1.305  20.114  14.850  0.00  0.00    +0.000 OA
ENDROOT
TORSDOF 0
REMARK  Name = ../refined-set-2016/3gy7/3gy7_pocket.pdb
REMARK  125 active torsions:
REMARK  status: ('A' for Active; 'I' for Inactive)
REMARK    1  A    between atoms: _1  and  _5
REMARK    2  A    between atoms: _5  and  _6
REMARK    3  A    between atoms: _5  and  _8
REMARK    4  A    between atoms: _8  and  _9
REMARK    5  A    between atoms: _12  and  _14
REMARK    6  A    between atoms: _14  and  _15
REMARK    7  A    between atoms: _14  and  _17
REMARK    8  A    between atoms: _20  and  _22
REMARK    9  A    between atoms: _22  and  _23
REMARK   10  A    between atoms: _22  and  _25
REMARK   11  A    between atoms: _25  and  _26
REMARK   12  A    between atoms: _31  and  _33
REMARK   13  A    between atoms: _33  and  _34
REMARK   14  A    between atoms: _33  and  _36
REMARK   15  A    between atoms: _36  and  _37
REMARK   16  A    between atoms: _40  and  _42
REMARK   17  A    between atoms: _42  and  _43
REMARK   18  A    between atoms: _42  and  _45
REMARK   19  A    between atoms: _45  and  _46
REMARK   20  A    between atoms: _49  and  _51
REMARK   21  A    between atoms: _51  and  _52
REMARK   22  A    between atoms: _51  and  _54
REMARK   23  A    between atoms: _54  and  _55
REMARK   24  A    between atoms: _58  and  _60
REMARK   25  A    between atoms: _60  and  _61
REMARK   26  A    between atoms: _60  and  _63
REMARK   27  A    between atoms: _63  and  _64
REMARK   28  A    between atoms: _69  and  _71
REMARK   29  A    between atoms: _71  and  _72
REMARK   30  A    between atoms: _71  and  _74
REMARK   31  A    between atoms: _74  and  _75
REMARK   32  A    between atoms: _80  and  _81
REMARK   33  A    between atoms: _83  and  _85
REMARK   34  A    between atoms: _85  and  _86
REMARK   35  A    between atoms: _89  and  _91
REMARK   36  A    between atoms: _91  and  _92
REMARK   37  A    between atoms: _91  and  _94
REMARK   38  A    between atoms: _94  and  _95
REMARK   39  A    between atoms: _95  and  _96
REMARK   40  A    between atoms: _96  and  _97
REMARK   41  A    between atoms: _97  and  _98
REMARK   42  A    between atoms: _102  and  _104
REMARK   43  A    between atoms: _104  and  _105
REMARK   44  A    between atoms: _104  and  _107
REMARK   45  A    between atoms: _107  and  _108
REMARK   46  A    between atoms: _111  and  _113
REMARK   47  A    between atoms: _113  and  _114
REMARK   48  A    between atoms: _113  and  _116
REMARK   49  A    between atoms: _116  and  _117
REMARK   50  A    between atoms: _119  and  _121
REMARK   51  A    between atoms: _121  and  _122
REMARK   52  A    between atoms: _121  and  _124
REMARK   53  A    between atoms: _124  and  _125
REMARK   54  A    between atoms: _125  and  _235
REMARK   55  A    between atoms: _126  and  _128
REMARK   56  A    between atoms: _128  and  _129
REMARK   57  A    between atoms: _128  and  _131
REMARK   58  A    between atoms: _131  and  _132
REMARK   59  A    between atoms: _132  and  _133
REMARK   60  A    between atoms: _138  and  _140
REMARK   61  A    between atoms: _140  and  _141
REMARK   62  A    between atoms: _143  and  _145
REMARK   63  A    between atoms: _145  and  _146
REMARK   64  A    between atoms: _145  and  _148
REMARK   65  A    between atoms: _148  and  _149
REMARK   66  A    between atoms: _152  and  _154
REMARK   67  A    between atoms: _154  and  _155
REMARK   68  A    between atoms: _154  and  _157
REMARK   69  A    between atoms: _157  and  _158
REMARK   70  A    between atoms: _160  and  _162
REMARK   71  A    between atoms: _162  and  _163
REMARK   72  A    between atoms: _165  and  _167
REMARK   73  A    between atoms: _167  and  _168
REMARK   74  A    between atoms: _170  and  _172
REMARK   75  A    between atoms: _172  and  _173
REMARK   76  A    between atoms: _172  and  _175
REMARK   77  A    between atoms: _175  and  _176
REMARK   78  A    between atoms: _179  and  _181
REMARK   79  A    between atoms: _181  and  _182
REMARK   80  A    between atoms: _181  and  _184
REMARK   81  A    between atoms: _187  and  _189
REMARK   82  A    between atoms: _189  and  _190
REMARK   83  A    between atoms: _189  and  _192
REMARK   84  A    between atoms: _192  and  _193
REMARK   85  A    between atoms: _195  and  _197
REMARK   86  A    between atoms: _197  and  _198
REMARK   87  A    between atoms: _197  and  _200
REMARK   88  A    between atoms: _200  and  _201
REMARK   89  A    between atoms: _211  and  _213
REMARK   90  A    between atoms: _213  and  _214
REMARK   91  A    between atoms: _216  and  _218
REMARK   92  A    between atoms: _218  and  _219
REMARK   93  A    between atoms: _218  and  _221
REMARK   94  A    between atoms: _221  and  _222
REMARK   95  A    between atoms: _224  and  _226
REMARK   96  A    between atoms: _226  and  _227
REMARK   97  A    between atoms: _229  and  _231
REMARK   98  A    between atoms: _231  and  _232
REMARK   99  A    between atoms: _231  and  _234
REMARK  100  A    between atoms: _234  and  _235
REMARK  101  A    between atoms: _236  and  _238
REMARK  102  A    between atoms: _238  and  _239
REMARK  103  A    between atoms: _242  and  _244
REMARK  104  A    between atoms: _244  and  _245
REMARK  105  A    between atoms: _244  and  _247
REMARK  106  A    between atoms: _247  and  _248
REMARK  107  A    between atoms: _248  and  _249
REMARK  108  A    between atoms: _254  and  _256
REMARK  109  A    between atoms: _256  and  _257
REMARK  110  A    between atoms: _256  and  _259
REMARK  111  A    between atoms: _259  and  _260
REMARK  112  A    between atoms: _260  and  _261
REMARK  113  A    between atoms: _261  and  _262
REMARK  114  A    between atoms: _262  and  _263
REMARK  115  A    between atoms: _268  and  _269
REMARK  116  A    between atoms: _274  and  _276
REMARK  117  A    between atoms: _276  and  _277
REMARK  118  A    between atoms: _279  and  _281
REMARK  119  A    between atoms: _281  and  _282
REMARK  120  A    between atoms: _281  and  _284
REMARK  121  A    between atoms: _287  and  _289
REMARK  122  A    between atoms: _289  and  _290
REMARK  123  A    between atoms: _289  and  _292
REMARK  124  A    between atoms: _292  and  _293
REMARK  125  A    between atoms: _298  and  _299
REMARK                            x       y       z     vdW  Elec       q    Type
REMARK                         _______ _______ _______ _____ _____    ______ ____
ROOT
ATOM      1  O   HOH     1      -1.732  15.004  25.055  0.00  0.00    +0.000 OA
ENDROOT
TORSDOF 0
REMARK  Name = ../refined-set-2016/3gy7/3gy7_pocket.pdb
REMARK  125 active torsions:
REMARK  status: ('A' for Active; 'I' for Inactive)
REMARK    1  A    between atoms: _1  and  _5
REMARK    2  A    between atoms: _5  and  _6
REMARK    3  A    between atoms: _5  and  _8
REMARK    4  A    between atoms: _8  and  _9
REMARK    5  A    between atoms: _12  and  _14
REMARK    6  A    between atoms: _14  and  _15
REMARK    7  A    between atoms: _14  and  _17
REMARK    8  A    between atoms: _20  and  _22
REMARK    9  A    between atoms: _22  and  _23
REMARK   10  A    between atoms: _22  and  _25
REMARK   11  A    between atoms: _25  and  _26
REMARK   12  A    between atoms: _31  and  _33
REMARK   13  A    between atoms: _33  and  _34
REMARK   14  A    between atoms: _33  and  _36
REMARK   15  A    between atoms: _36  and  _37
REMARK   16  A    between atoms: _40  and  _42
REMARK   17  A    between atoms: _42  and  _43
REMARK   18  A    between atoms: _42  and  _45
REMARK   19  A    between atoms: _45  and  _46
REMARK   20  A    between atoms: _49  and  _51
REMARK   21  A    between atoms: _51  and  _52
REMARK   22  A    between atoms: _51  and  _54
REMARK   23  A    between atoms: _54  and  _55
REMARK   24  A    between atoms: _58  and  _60
REMARK   25  A    between atoms: _60  and  _61
REMARK   26  A    between atoms: _60  and  _63
REMARK   27  A    between atoms: _63  and  _64
REMARK   28  A    between atoms: _69  and  _71
REMARK   29  A    between atoms: _71  and  _72
REMARK   30  A    between atoms: _71  and  _74
REMARK   31  A    between atoms: _74  and  _75
REMARK   32  A    between atoms: _80  and  _81
REMARK   33  A    between atoms: _83  and  _85
REMARK   34  A    between atoms: _85  and  _86
REMARK   35  A    between atoms: _89  and  _91
REMARK   36  A    between atoms: _91  and  _92
REMARK   37  A    between atoms: _91  and  _94
REMARK   38  A    between atoms: _94  and  _95
REMARK   39  A    between atoms: _95  and  _96
REMARK   40  A    between atoms: _96  and  _97
REMARK   41  A    between atoms: _97  and  _98
REMARK   42  A    between atoms: _102  and  _104
REMARK   43  A    between atoms: _104  and  _105
REMARK   44  A    between atoms: _104  and  _107
REMARK   45  A    between atoms: _107  and  _108
REMARK   46  A    between atoms: _111  and  _113
REMARK   47  A    between atoms: _113  and  _114
REMARK   48  A    between atoms: _113  and  _116
REMARK   49  A    between atoms: _116  and  _117
REMARK   50  A    between atoms: _119  and  _121
REMARK   51  A    between atoms: _121  and  _122
REMARK   52  A    between atoms: _121  and  _124
REMARK   53  A    between atoms: _124  and  _125
REMARK   54  A    between atoms: _125  and  _235
REMARK   55  A    between atoms: _126  and  _128
REMARK   56  A    between atoms: _128  and  _129
REMARK   57  A    between atoms: _128  and  _131
REMARK   58  A    between atoms: _131  and  _132
REMARK   59  A    between atoms: _132  and  _133
REMARK   60  A    between atoms: _138  and  _140
REMARK   61  A    between atoms: _140  and  _141
REMARK   62  A    between atoms: _143  and  _145
REMARK   63  A    between atoms: _145  and  _146
REMARK   64  A    between atoms: _145  and  _148
REMARK   65  A    between atoms: _148  and  _149
REMARK   66  A    between atoms: _152  and  _154
REMARK   67  A    between atoms: _154  and  _155
REMARK   68  A    between atoms: _154  and  _157
REMARK   69  A    between atoms: _157  and  _158
REMARK   70  A    between atoms: _160  and  _162
REMARK   71  A    between atoms: _162  and  _163
REMARK   72  A    between atoms: _165  and  _167
REMARK   73  A    between atoms: _167  and  _168
REMARK   74  A    between atoms: _170  and  _172
REMARK   75  A    between atoms: _172  and  _173
REMARK   76  A    between atoms: _172  and  _175
REMARK   77  A    between atoms: _175  and  _176
REMARK   78  A    between atoms: _179  and  _181
REMARK   79  A    between atoms: _181  and  _182
REMARK   80  A    between atoms: _181  and  _184
REMARK   81  A    between atoms: _187  and  _189
REMARK   82  A    between atoms: _189  and  _190
REMARK   83  A    between atoms: _189  and  _192
REMARK   84  A    between atoms: _192  and  _193
REMARK   85  A    between atoms: _195  and  _197
REMARK   86  A    between atoms: _197  and  _198
REMARK   87  A    between atoms: _197  and  _200
REMARK   88  A    between atoms: _200  and  _201
REMARK   89  A    between atoms: _211  and  _213
REMARK   90  A    between atoms: _213  and  _214
REMARK   91  A    between atoms: _216  and  _218
REMARK   92  A    between atoms: _218  and  _219
REMARK   93  A    between atoms: _218  and  _221
REMARK   94  A    between atoms: _221  and  _222
REMARK   95  A    between atoms: _224  and  _226
REMARK   96  A    between atoms: _226  and  _227
REMARK   97  A    between atoms: _229  and  _231
REMARK   98  A    between atoms: _231  and  _232
REMARK   99  A    between atoms: _231  and  _234
REMARK  100  A    between atoms: _234  and  _235
REMARK  101  A    between atoms: _236  and  _238
REMARK  102  A    between atoms: _238  and  _239
REMARK  103  A    between atoms: _242  and  _244
REMARK  104  A    between atoms: _244  and  _245
REMARK  105  A    between atoms: _244  and  _247
REMARK  106  A    between atoms: _247  and  _248
REMARK  107  A    between atoms: _248  and  _249
REMARK  108  A    between atoms: _254  and  _256
REMARK  109  A    between atoms: _256  and  _257
REMARK  110  A    between atoms: _256  and  _259
REMARK  111  A    between atoms: _259  and  _260
REMARK  112  A    between atoms: _260  and  _261
REMARK  113  A    between atoms: _261  and  _262
REMARK  114  A    between atoms: _262  and  _263
REMARK  115  A    between atoms: _268  and  _269
REMARK  116  A    between atoms: _274  and  _276
REMARK  117  A    between atoms: _276  and  _277
REMARK  118  A    between atoms: _279  and  _281
REMARK  119  A    between atoms: _281  and  _282
REMARK  120  A    between atoms: _281  and  _284
REMARK  121  A    between atoms: _287  and  _289
REMARK  122  A    between atoms: _289  and  _290
REMARK  123  A    between atoms: _289  and  _292
REMARK  124  A    between atoms: _292  and  _293
REMARK  125  A    between atoms: _298  and  _299
REMARK                            x       y       z     vdW  Elec       q    Type
REMARK                         _______ _______ _______ _____ _____    ______ ____
ROOT
ATOM      1  O   HOH     1      -2.262  14.182  11.975  0.00  0.00    +0.000 OA
ENDROOT
TORSDOF 0
REMARK  Name = ../refined-set-2016/3gy7/3gy7_pocket.pdb
REMARK  125 active torsions:
REMARK  status: ('A' for Active; 'I' for Inactive)
REMARK    1  A    between atoms: _1  and  _5
REMARK    2  A    between atoms: _5  and  _6
REMARK    3  A    between atoms: _5  and  _8
REMARK    4  A    between atoms: _8  and  _9
REMARK    5  A    between atoms: _12  and  _14
REMARK    6  A    between atoms: _14  and  _15
REMARK    7  A    between atoms: _14  and  _17
REMARK    8  A    between atoms: _20  and  _22
REMARK    9  A    between atoms: _22  and  _23
REMARK   10  A    between atoms: _22  and  _25
REMARK   11  A    between atoms: _25  and  _26
REMARK   12  A    between atoms: _31  and  _33
REMARK   13  A    between atoms: _33  and  _34
REMARK   14  A    between atoms: _33  and  _36
REMARK   15  A    between atoms: _36  and  _37
REMARK   16  A    between atoms: _40  and  _42
REMARK   17  A    between atoms: _42  and  _43
REMARK   18  A    between atoms: _42  and  _45
REMARK   19  A    between atoms: _45  and  _46
REMARK   20  A    between atoms: _49  and  _51
REMARK   21  A    between atoms: _51  and  _52
REMARK   22  A    between atoms: _51  and  _54
REMARK   23  A    between atoms: _54  and  _55
REMARK   24  A    between atoms: _58  and  _60
REMARK   25  A    between atoms: _60  and  _61
REMARK   26  A    between atoms: _60  and  _63
REMARK   27  A    between atoms: _63  and  _64
REMARK   28  A    between atoms: _69  and  _71
REMARK   29  A    between atoms: _71  and  _72
REMARK   30  A    between atoms: _71  and  _74
REMARK   31  A    between atoms: _74  and  _75
REMARK   32  A    between atoms: _80  and  _81
REMARK   33  A    between atoms: _83  and  _85
REMARK   34  A    between atoms: _85  and  _86
REMARK   35  A    between atoms: _89  and  _91
REMARK   36  A    between atoms: _91  and  _92
REMARK   37  A    between atoms: _91  and  _94
REMARK   38  A    between atoms: _94  and  _95
REMARK   39  A    between atoms: _95  and  _96
REMARK   40  A    between atoms: _96  and  _97
REMARK   41  A    between atoms: _97  and  _98
REMARK   42  A    between atoms: _102  and  _104
REMARK   43  A    between atoms: _104  and  _105
REMARK   44  A    between atoms: _104  and  _107
REMARK   45  A    between atoms: _107  and  _108
REMARK   46  A    between atoms: _111  and  _113
REMARK   47  A    between atoms: _113  and  _114
REMARK   48  A    between atoms: _113  and  _116
REMARK   49  A    between atoms: _116  and  _117
REMARK   50  A    between atoms: _119  and  _121
REMARK   51  A    between atoms: _121  and  _122
REMARK   52  A    between atoms: _121  and  _124
REMARK   53  A    between atoms: _124  and  _125
REMARK   54  A    between atoms: _125  and  _235
REMARK   55  A    between atoms: _126  and  _128
REMARK   56  A    between atoms: _128  and  _129
REMARK   57  A    between atoms: _128  and  _131
REMARK   58  A    between atoms: _131  and  _132
REMARK   59  A    between atoms: _132  and  _133
REMARK   60  A    between atoms: _138  and  _140
REMARK   61  A    between atoms: _140  and  _141
REMARK   62  A    between atoms: _143  and  _145
REMARK   63  A    between atoms: _145  and  _146
REMARK   64  A    between atoms: _145  and  _148
REMARK   65  A    between atoms: _148  and  _149
REMARK   66  A    between atoms: _152  and  _154
REMARK   67  A    between atoms: _154  and  _155
REMARK   68  A    between atoms: _154  and  _157
REMARK   69  A    between atoms: _157  and  _158
REMARK   70  A    between atoms: _160  and  _162
REMARK   71  A    between atoms: _162  and  _163
REMARK   72  A    between atoms: _165  and  _167
REMARK   73  A    between atoms: _167  and  _168
REMARK   74  A    between atoms: _170  and  _172
REMARK   75  A    between atoms: _172  and  _173
REMARK   76  A    between atoms: _172  and  _175
REMARK   77  A    between atoms: _175  and  _176
REMARK   78  A    between atoms: _179  and  _181
REMARK   79  A    between atoms: _181  and  _182
REMARK   80  A    between atoms: _181  and  _184
REMARK   81  A    between atoms: _187  and  _189
REMARK   82  A    between atoms: _189  and  _190
REMARK   83  A    between atoms: _189  and  _192
REMARK   84  A    between atoms: _192  and  _193
REMARK   85  A    between atoms: _195  and  _197
REMARK   86  A    between atoms: _197  and  _198
REMARK   87  A    between atoms: _197  and  _200
REMARK   88  A    between atoms: _200  and  _201
REMARK   89  A    between atoms: _211  and  _213
REMARK   90  A    between atoms: _213  and  _214
REMARK   91  A    between atoms: _216  and  _218
REMARK   92  A    between atoms: _218  and  _219
REMARK   93  A    between atoms: _218  and  _221
REMARK   94  A    between atoms: _221  and  _222
REMARK   95  A    between atoms: _224  and  _226
REMARK   96  A    between atoms: _226  and  _227
REMARK   97  A    between atoms: _229  and  _231
REMARK   98  A    between atoms: _231  and  _232
REMARK   99  A    between atoms: _231  and  _234
REMARK  100  A    between atoms: _234  and  _235
REMARK  101  A    between atoms: _236  and  _238
REMARK  102  A    between atoms: _238  and  _239
REMARK  103  A    between atoms: _242  and  _244
REMARK  104  A    between atoms: _244  and  _245
REMARK  105  A    between atoms: _244  and  _247
REMARK  106  A    between atoms: _247  and  _248
REMARK  107  A    between atoms: _248  and  _249
REMARK  108  A    between atoms: _254  and  _256
REMARK  109  A    between atoms: _256  and  _257
REMARK  110  A    between atoms: _256  and  _259
REMARK  111  A    between atoms: _259  and  _260
REMARK  112  A    between atoms: _260  and  _261
REMARK  113  A    between atoms: _261  and  _262
REMARK  114  A    between atoms: _262  and  _263
REMARK  115  A    between atoms: _268  and  _269
REMARK  116  A    between atoms: _274  and  _276
REMARK  117  A    between atoms: _276  and  _277
REMARK  118  A    between atoms: _279  and  _281
REMARK  119  A    between atoms: _281  and  _282
REMARK  120  A    between atoms: _281  and  _284
REMARK  121  A    between atoms: _287  and  _289
REMARK  122  A    between atoms: _289  and  _290
REMARK  123  A    between atoms: _289  and  _292
REMARK  124  A    between atoms: _292  and  _293
REMARK  125  A    between atoms: _298  and  _299
REMARK                            x       y       z     vdW  Elec       q    Type
REMARK                         _______ _______ _______ _____ _____    ______ ____
ROOT
ATOM      1  O   HOH     1       1.339  20.565  12.151  0.00  0.00    +0.000 OA
ENDROOT
TORSDOF 0
REMARK  Name = ../refined-set-2016/3gy7/3gy7_pocket.pdb
REMARK  125 active torsions:
REMARK  status: ('A' for Active; 'I' for Inactive)
REMARK    1  A    between atoms: _1  and  _5
REMARK    2  A    between atoms: _5  and  _6
REMARK    3  A    between atoms: _5  and  _8
REMARK    4  A    between atoms: _8  and  _9
REMARK    5  A    between atoms: _12  and  _14
REMARK    6  A    between atoms: _14  and  _15
REMARK    7  A    between atoms: _14  and  _17
REMARK    8  A    between atoms: _20  and  _22
REMARK    9  A    between atoms: _22  and  _23
REMARK   10  A    between atoms: _22  and  _25
REMARK   11  A    between atoms: _25  and  _26
REMARK   12  A    between atoms: _31  and  _33
REMARK   13  A    between atoms: _33  and  _34
REMARK   14  A    between atoms: _33  and  _36
REMARK   15  A    between atoms: _36  and  _37
REMARK   16  A    between atoms: _40  and  _42
REMARK   17  A    between atoms: _42  and  _43
REMARK   18  A    between atoms: _42  and  _45
REMARK   19  A    between atoms: _45  and  _46
REMARK   20  A    between atoms: _49  and  _51
REMARK   21  A    between atoms: _51  and  _52
REMARK   22  A    between atoms: _51  and  _54
REMARK   23  A    between atoms: _54  and  _55
REMARK   24  A    between atoms: _58  and  _60
REMARK   25  A    between atoms: _60  and  _61
REMARK   26  A    between atoms: _60  and  _63
REMARK   27  A    between atoms: _63  and  _64
REMARK   28  A    between atoms: _69  and  _71
REMARK   29  A    between atoms: _71  and  _72
REMARK   30  A    between atoms: _71  and  _74
REMARK   31  A    between atoms: _74  and  _75
REMARK   32  A    between atoms: _80  and  _81
REMARK   33  A    between atoms: _83  and  _85
REMARK   34  A    between atoms: _85  and  _86
REMARK   35  A    between atoms: _89  and  _91
REMARK   36  A    between atoms: _91  and  _92
REMARK   37  A    between atoms: _91  and  _94
REMARK   38  A    between atoms: _94  and  _95
REMARK   39  A    between atoms: _95  and  _96
REMARK   40  A    between atoms: _96  and  _97
REMARK   41  A    between atoms: _97  and  _98
REMARK   42  A    between atoms: _102  and  _104
REMARK   43  A    between atoms: _104  and  _105
REMARK   44  A    between atoms: _104  and  _107
REMARK   45  A    between atoms: _107  and  _108
REMARK   46  A    between atoms: _111  and  _113
REMARK   47  A    between atoms: _113  and  _114
REMARK   48  A    between atoms: _113  and  _116
REMARK   49  A    between atoms: _116  and  _117
REMARK   50  A    between atoms: _119  and  _121
REMARK   51  A    between atoms: _121  and  _122
REMARK   52  A    between atoms: _121  and  _124
REMARK   53  A    between atoms: _124  and  _125
REMARK   54  A    between atoms: _125  and  _235
REMARK   55  A    between atoms: _126  and  _128
REMARK   56  A    between atoms: _128  and  _129
REMARK   57  A    between atoms: _128  and  _131
REMARK   58  A    between atoms: _131  and  _132
REMARK   59  A    between atoms: _132  and  _133
REMARK   60  A    between atoms: _138  and  _140
REMARK   61  A    between atoms: _140  and  _141
REMARK   62  A    between atoms: _143  and  _145
REMARK   63  A    between atoms: _145  and  _146
REMARK   64  A    between atoms: _145  and  _148
REMARK   65  A    between atoms: _148  and  _149
REMARK   66  A    between atoms: _152  and  _154
REMARK   67  A    between atoms: _154  and  _155
REMARK   68  A    between atoms: _154  and  _157
REMARK   69  A    between atoms: _157  and  _158
REMARK   70  A    between atoms: _160  and  _162
REMARK   71  A    between atoms: _162  and  _163
REMARK   72  A    between atoms: _165  and  _167
REMARK   73  A    between atoms: _167  and  _168
REMARK   74  A    between atoms: _170  and  _172
REMARK   75  A    between atoms: _172  and  _173
REMARK   76  A    between atoms: _172  and  _175
REMARK   77  A    between atoms: _175  and  _176
REMARK   78  A    between atoms: _179  and  _181
REMARK   79  A    between atoms: _181  and  _182
REMARK   80  A    between atoms: _181  and  _184
REMARK   81  A    between atoms: _187  and  _189
REMARK   82  A    between atoms: _189  and  _190
REMARK   83  A    between atoms: _189  and  _192
REMARK   84  A    between atoms: _192  and  _193
REMARK   85  A    between atoms: _195  and  _197
REMARK   86  A    between atoms: _197  and  _198
REMARK   87  A    between atoms: _197  and  _200
REMARK   88  A    between atoms: _200  and  _201
REMARK   89  A    between atoms: _211  and  _213
REMARK   90  A    between atoms: _213  and  _214
REMARK   91  A    between atoms: _216  and  _218
REMARK   92  A    between atoms: _218  and  _219
REMARK   93  A    between atoms: _218  and  _221
REMARK   94  A    between atoms: _221  and  _222
REMARK   95  A    between atoms: _224  and  _226
REMARK   96  A    between atoms: _226  and  _227
REMARK   97  A    between atoms: _229  and  _231
REMARK   98  A    between atoms: _231  and  _232
REMARK   99  A    between atoms: _231  and  _234
REMARK  100  A    between atoms: _234  and  _235
REMARK  101  A    between atoms: _236  and  _238
REMARK  102  A    between atoms: _238  and  _239
REMARK  103  A    between atoms: _242  and  _244
REMARK  104  A    between atoms: _244  and  _245
REMARK  105  A    between atoms: _244  and  _247
REMARK  106  A    between atoms: _247  and  _248
REMARK  107  A    between atoms: _248  and  _249
REMARK  108  A    between atoms: _254  and  _256
REMARK  109  A    between atoms: _256  and  _257
REMARK  110  A    between atoms: _256  and  _259
REMARK  111  A    between atoms: _259  and  _260
REMARK  112  A    between atoms: _260  and  _261
REMARK  113  A    between atoms: _261  and  _262
REMARK  114  A    between atoms: _262  and  _263
REMARK  115  A    between atoms: _268  and  _269
REMARK  116  A    between atoms: _274  and  _276
REMARK  117  A    between atoms: _276  and  _277
REMARK  118  A    between atoms: _279  and  _281
REMARK  119  A    between atoms: _281  and  _282
REMARK  120  A    between atoms: _281  and  _284
REMARK  121  A    between atoms: _287  and  _289
REMARK  122  A    between atoms: _289  and  _290
REMARK  123  A    between atoms: _289  and  _292
REMARK  124  A    between atoms: _292  and  _293
REMARK  125  A    between atoms: _298  and  _299
REMARK                            x       y       z     vdW  Elec       q    Type
REMARK                         _______ _______ _______ _____ _____    ______ ____
ROOT
ATOM      1  O   HOH     1      -2.028  19.452  17.655  0.00  0.00    +0.000 OA
ENDROOT
TORSDOF 0
