REMARK  Name = ../refined-set-2016/4aq6/4aq6_pocket.pdb
REMARK  161 active torsions:
REMARK  status: ('A' for Active; 'I' for Inactive)
REMARK    1  A    between atoms: _1  and  _3
REMARK    2  A    between atoms: _3  and  _4
REMARK    3  A    between atoms: _3  and  _6
REMARK    4  A    between atoms: _6  and  _7
REMARK    5  A    between atoms: _13  and  _14
REMARK    6  A    between atoms: _19  and  _21
REMARK    7  A    between atoms: _21  and  _22
REMARK    8  A    between atoms: _21  and  _24
REMARK    9  A    between atoms: _24  and  _25
REMARK   10  A    between atoms: _29  and  _30
REMARK   11  A    between atoms: _35  and  _37
REMARK   12  A    between atoms: _37  and  _38
REMARK   13  A    between atoms: _37  and  _40
REMARK   14  A    between atoms: _40  and  _41
REMARK   15  A    between atoms: _43  and  _45
REMARK   16  A    between atoms: _45  and  _46
REMARK   17  A    between atoms: _45  and  _48
REMARK   18  A    between atoms: _48  and  _49
REMARK   19  A    between atoms: _52  and  _54
REMARK   20  A    between atoms: _54  and  _55
REMARK   21  A    between atoms: _54  and  _57
REMARK   22  A    between atoms: _57  and  _58
REMARK   23  A    between atoms: _64  and  _66
REMARK   24  A    between atoms: _66  and  _67
REMARK   25  A    between atoms: _66  and  _69
REMARK   26  A    between atoms: _72  and  _74
REMARK   27  A    between atoms: _74  and  _75
REMARK   28  A    between atoms: _74  and  _77
REMARK   29  A    between atoms: _77  and  _78
REMARK   30  A    between atoms: _81  and  _83
REMARK   31  A    between atoms: _83  and  _84
REMARK   32  A    between atoms: _83  and  _86
REMARK   33  A    between atoms: _86  and  _87
REMARK   34  A    between atoms: _93  and  _95
REMARK   35  A    between atoms: _95  and  _96
REMARK   36  A    between atoms: _95  and  _98
REMARK   37  A    between atoms: _98  and  _99
REMARK   38  A    between atoms: _99  and  _100
REMARK   39  A    between atoms: _100  and  _101
REMARK   40  A    between atoms: _110  and  _112
REMARK   41  A    between atoms: _112  and  _113
REMARK   42  A    between atoms: _112  and  _115
REMARK   43  A    between atoms: _115  and  _116
REMARK   44  A    between atoms: _116  and  _117
REMARK   45  A    between atoms: _117  and  _118
REMARK   46  A    between atoms: _128  and  _129
REMARK   47  A    between atoms: _135  and  _136
REMARK   48  A    between atoms: _141  and  _143
REMARK   49  A    between atoms: _143  and  _144
REMARK   50  A    between atoms: _143  and  _146
REMARK   51  A    between atoms: _146  and  _147
REMARK   52  A    between atoms: _157  and  _159
REMARK   53  A    between atoms: _159  and  _160
REMARK   54  A    between atoms: _159  and  _162
REMARK   55  A    between atoms: _162  and  _163
REMARK   56  A    between atoms: _169  and  _171
REMARK   57  A    between atoms: _171  and  _172
REMARK   58  A    between atoms: _171  and  _174
REMARK   59  A    between atoms: _174  and  _175
REMARK   60  A    between atoms: _176  and  FE_434
REMARK   61  A    between atoms: _180  and  _182
REMARK   62  A    between atoms: _182  and  _183
REMARK   63  A    between atoms: _182  and  _185
REMARK   64  A    between atoms: _185  and  _186
REMARK   65  A    between atoms: _186  and  _187
REMARK   66  A    between atoms: _187  and  _188
REMARK   67  A    between atoms: _197  and  _199
REMARK   68  A    between atoms: _199  and  _200
REMARK   69  A    between atoms: _199  and  _202
REMARK   70  A    between atoms: _202  and  _203
REMARK   71  A    between atoms: _208  and  _210
REMARK   72  A    between atoms: _210  and  _211
REMARK   73  A    between atoms: _210  and  _213
REMARK   74  A    between atoms: _213  and  _214
REMARK   75  A    between atoms: _214  and  _215
REMARK   76  A    between atoms: _218  and  _220
REMARK   77  A    between atoms: _220  and  _221
REMARK   78  A    between atoms: _220  and  _223
REMARK   79  A    between atoms: _223  and  _224
REMARK   80  A    between atoms: _230  and  _232
REMARK   81  A    between atoms: _232  and  _233
REMARK   82  A    between atoms: _232  and  _235
REMARK   83  A    between atoms: _235  and  _236
REMARK   84  A    between atoms: _236  and  _237
REMARK   85  A    between atoms: _239  and  _241
REMARK   86  A    between atoms: _241  and  _242
REMARK   87  A    between atoms: _241  and  _244
REMARK   88  A    between atoms: _244  and  _245
REMARK   89  A    between atoms: _250  and  _251
REMARK   90  A    between atoms: _253  and  _255
REMARK   91  A    between atoms: _255  and  _256
REMARK   92  A    between atoms: _255  and  _258
REMARK   93  A    between atoms: _258  and  _259
REMARK   94  A    between atoms: _262  and  _264
REMARK   95  A    between atoms: _264  and  _265
REMARK   96  A    between atoms: _268  and  _270
REMARK   97  A    between atoms: _270  and  _271
REMARK   98  A    between atoms: _270  and  _273
REMARK   99  A    between atoms: _273  and  _274
REMARK  100  A    between atoms: _274  and  _275
REMARK  101  A    between atoms: _275  and  _276
REMARK  102  A    between atoms: _276  and  _277
REMARK  103  A    between atoms: _281  and  _283
REMARK  104  A    between atoms: _283  and  _284
REMARK  105  A    between atoms: _283  and  _286
REMARK  106  A    between atoms: _286  and  _287
REMARK  107  A    between atoms: _293  and  _295
REMARK  108  A    between atoms: _295  and  _296
REMARK  109  A    between atoms: _295  and  _298
REMARK  110  A    between atoms: _298  and  _299
REMARK  111  A    between atoms: _301  and  _303
REMARK  112  A    between atoms: _303  and  _304
REMARK  113  A    between atoms: _303  and  _306
REMARK  114  A    between atoms: _306  and  _307
REMARK  115  A    between atoms: _312  and  _314
REMARK  116  A    between atoms: _314  and  _315
REMARK  117  A    between atoms: _314  and  _317
REMARK  118  A    between atoms: _317  and  _318
REMARK  119  A    between atoms: _322  and  FE_434
REMARK  120  A    between atoms: _323  and  _325
REMARK  121  A    between atoms: _325  and  _326
REMARK  122  A    between atoms: _329  and  _330
REMARK  123  A    between atoms: _335  and  _337
REMARK  124  A    between atoms: _337  and  _338
REMARK  125  A    between atoms: _337  and  _340
REMARK  126  A    between atoms: _340  and  _341
REMARK  127  A    between atoms: _344  and  _346
REMARK  128  A    between atoms: _346  and  _347
REMARK  129  A    between atoms: _346  and  _349
REMARK  130  A    between atoms: _349  and  _350
REMARK  131  A    between atoms: _356  and  _358
REMARK  132  A    between atoms: _358  and  _359
REMARK  133  A    between atoms: _358  and  _361
REMARK  134  A    between atoms: _361  and  _362
REMARK  135  A    between atoms: _362  and  _363
REMARK  136  A    between atoms: _365  and  _367
REMARK  137  A    between atoms: _367  and  _368
REMARK  138  A    between atoms: _367  and  _370
REMARK  139  A    between atoms: _370  and  _371
REMARK  140  A    between atoms: _371  and  _372
REMARK  141  A    between atoms: _375  and  _377
REMARK  142  A    between atoms: _377  and  _378
REMARK  143  A    between atoms: _377  and  _380
REMARK  144  A    between atoms: _380  and  _381
REMARK  145  A    between atoms: _386  and  _387
REMARK  146  A    between atoms: _389  and  _391
REMARK  147  A    between atoms: _391  and  _392
REMARK  148  A    between atoms: _391  and  _394
REMARK  149  A    between atoms: _394  and  _395
REMARK  150  A    between atoms: _405  and  _407
REMARK  151  A    between atoms: _407  and  _408
REMARK  152  A    between atoms: _407  and  _410
REMARK  153  A    between atoms: _410  and  _411
REMARK  154  A    between atoms: _414  and  _416
REMARK  155  A    between atoms: _416  and  _417
REMARK  156  A    between atoms: _416  and  _419
REMARK  157  A    between atoms: _419  and  _420
REMARK  158  A    between atoms: _422  and  _424
REMARK  159  A    between atoms: _424  and  _425
REMARK  160  A    between atoms: _424  and  _427
REMARK  161  A    between atoms: _427  and  _428
REMARK                            x       y       z     vdW  Elec       q    Type
REMARK                         _______ _______ _______ _____ _____    ______ ____
ROOT
ATOM      1  C   ASP A   3      16.188  42.353  -9.492  0.00  0.00    +0.244 C 
ATOM      2  N   PRO A   4      15.820  42.325  -8.199  0.00  0.00    -0.272 N 
ATOM      3  CD  PRO A   4      16.111  43.325  -7.154  0.00  0.00    +0.094 C 
ATOM      4  CG  PRO A   4      15.341  42.842  -5.980  0.00  0.00    +0.024 C 
ATOM      5  CB  PRO A   4      15.185  41.346  -6.153  0.00  0.00    +0.031 C 
ATOM      6  CA  PRO A   4      15.166  41.124  -7.669  0.00  0.00    +0.152 C 
ATOM      7  O   ASP A   3      15.917  41.445 -10.270  0.00  0.00    -0.273 OA
ENDROOT
BRANCH   6   8
ATOM      8  C   PRO A   4      13.740  40.947  -8.197  0.00  0.00    +0.241 C 
ATOM      9  O   PRO A   4      13.120  39.916  -7.959  0.00  0.00    -0.273 OA
ATOM     10  N   SER A   5      13.235  41.937  -8.925  0.00  0.00    -0.295 N 
ATOM     11  H   SER A   5      13.752  42.836  -9.002  0.00  0.00    +0.150 HD
BRANCH  10  12
ATOM     12  CA  SER A   5      11.962  41.773  -9.616  0.00  0.00    +0.178 C 
BRANCH  12  13
ATOM     13  C   SER A   5      12.065  40.589 -10.566  0.00  0.00    +0.243 C 
ATOM     14  N   ILE A   6      13.294  40.246 -10.934  0.00  0.00    -0.297 N 
ATOM     15  H   ILE A   6      14.108  40.743 -10.519  0.00  0.00    +0.150 HD
ATOM     16  O   SER A   5      11.053  39.995 -10.962  0.00  0.00    -0.273 OA
BRANCH  14  17
ATOM     17  CA  ILE A   6      13.524  39.184 -11.910  0.00  0.00    +0.149 C 
BRANCH  17  18
ATOM     18  C   ILE A   6      13.115  37.810 -11.335  0.00  0.00    +0.241 C 
ATOM     19  N   PHE A   7      12.931  37.771 -10.021  0.00  0.00    -0.298 N 
ATOM     20  H   PHE A   7      13.077  38.644  -9.474  0.00  0.00    +0.150 HD
ATOM     21  O   ILE A   6      12.956  36.829 -12.063  0.00  0.00    -0.273 OA
BRANCH  19  22
ATOM     22  CA  PHE A   7      12.534  36.562  -9.308  0.00  0.00    +0.141 C 
BRANCH  22  23
ATOM     23  C   PHE A   7      11.033  36.543  -9.020  0.00  0.00    +0.227 C 
ATOM     24  O   PHE A   7      10.577  35.826  -8.124  0.00  0.00    -0.286 OA
ENDBRANCH  22  23
BRANCH  22  25
ATOM     25  CB  PHE A   7      13.263  36.472  -7.962  0.00  0.00    +0.054 C 
BRANCH  25  26
ATOM     26  CG  PHE A   7      14.767  36.388  -8.063  0.00  0.00    -0.020 A 
ATOM     27  CD2 PHE A   7      15.563  37.343  -7.442  0.00  0.00    -0.004 A 
ATOM     28  CE2 PHE A   7      16.957  37.264  -7.496  0.00  0.00    -0.000 A 
ATOM     29  CZ  PHE A   7      17.564  36.214  -8.178  0.00  0.00    -0.000 A 
ATOM     30  CE1 PHE A   7      16.778  35.242  -8.793  0.00  0.00    -0.000 A 
ATOM     31  CD1 PHE A   7      15.385  35.335  -8.732  0.00  0.00    -0.004 A 
ENDBRANCH  25  26
ENDBRANCH  22  25
ENDBRANCH  19  22
ENDBRANCH  17  18
BRANCH  17  32
ATOM     32  CB  ILE A   6      14.996  39.174 -12.373  0.00  0.00    +0.027 C 
ATOM     33  CG2 ILE A   6      15.920  38.492 -11.325  0.00  0.00    +0.002 C 
BRANCH  32  34
ATOM     34  CG1 ILE A   6      15.126  38.526 -13.743  0.00  0.00    +0.002 C 
ATOM     35  CD1 ILE A   6      16.514  38.662 -14.287  0.00  0.00    +0.000 C 
ENDBRANCH  32  34
ENDBRANCH  17  32
ENDBRANCH  14  17
ENDBRANCH  12  13
BRANCH  12  36
ATOM     36  CB  SER A   5      11.597  43.049 -10.387  0.00  0.00    +0.166 C 
BRANCH  36  37
ATOM     37  OG  SER A   5      12.664  43.457 -11.243  0.00  0.00    -0.380 OA
ATOM     38  H   SER A   5      12.856  42.737 -11.895  0.00  0.00    +0.211 HD
ENDBRANCH  36  37
ENDBRANCH  12  36
ENDBRANCH  10  12
ENDBRANCH   6   8
BRANCH   1  39
ATOM     39  CA  ASP A   3      16.982  43.580  -9.980  0.00  0.00    +0.160 C 
BRANCH  39  42
ATOM     40  C   PRO A   2      18.921  42.211 -10.581  0.00  0.00    +0.241 C 
ATOM     41  O   PRO A   2      18.954  41.681  -9.463  0.00  0.00    -0.273 OA
ATOM     42  N   ASP A   3      18.059  43.174 -10.896  0.00  0.00    -0.297 N 
ATOM     43  H   ASP A   3      18.149  43.653 -11.815  0.00  0.00    +0.150 HD
BRANCH  40  50
ATOM     44  C   HIS A   1      22.016  42.176 -10.476  0.00  0.00    +0.242 C 
ATOM     45  O   HIS A   1      21.670  43.313 -10.162  0.00  0.00    -0.273 OA
ATOM     46  N   PRO A   2      21.219  41.343 -11.168  0.00  0.00    -0.272 N 
ATOM     47  CD  PRO A   2      21.545  39.963 -11.584  0.00  0.00    +0.094 C 
ATOM     48  CG  PRO A   2      20.661  39.752 -12.785  0.00  0.00    +0.024 C 
ATOM     49  CB  PRO A   2      19.396  40.550 -12.437  0.00  0.00    +0.031 C 
ATOM     50  CA  PRO A   2      19.913  41.785 -11.680  0.00  0.00    +0.152 C 
BRANCH  44  51
ATOM     51  CA  HIS A   1      23.403  41.671 -10.089  0.00  0.00    +0.151 C 
BRANCH  51  52
ATOM     52  N   HIS A   1      24.396  42.297 -10.962  0.00  0.00    -0.238 NA
ATOM     53  H   HIS A   1      24.360  43.328 -11.097  0.00  0.00    +0.142 HD
ENDBRANCH  51  52
BRANCH  51  54
ATOM     54  CB  HIS A   1      23.706  42.053  -8.633  0.00  0.00    +0.074 C 
BRANCH  54  55
ATOM     55  CG  HIS A   1      22.753  41.464  -7.634  0.00  0.00    +0.082 A 
ATOM     56  ND1 HIS A   1      23.078  40.385  -6.841  0.00  0.00    -0.227 NA
ATOM     57  CE1 HIS A   1      22.053  40.092  -6.058  0.00  0.00    +0.199 A 
ATOM     58  NE2 HIS A   1      21.079  40.947  -6.310  0.00  0.00    -0.221 NA
ATOM     59  CD2 HIS A   1      21.492  41.819  -7.286  0.00  0.00    +0.115 A 
ENDBRANCH  54  55
ENDBRANCH  51  54
ENDBRANCH  44  51
ENDBRANCH  40  50
ENDBRANCH  39  42
BRANCH  39  60
ATOM     60  CB  ASP A   3      16.041  44.569 -10.670  0.00  0.00    +0.143 C 
BRANCH  60  61
ATOM     61  CG  ASP A   3      16.763  45.806 -11.196  0.00  0.00    +0.367 C 
ATOM     62  OD2 ASP A   3      18.019  45.820 -11.190  0.00  0.00    -0.246 OA
ATOM     63  OD1 ASP A   3      16.071  46.761 -11.631  0.00  0.00    -0.246 OA
ENDBRANCH  60  61
ENDBRANCH  39  60
ENDBRANCH   1  39
TORSDOF 22
REMARK  Name = ../refined-set-2016/4aq6/4aq6_pocket.pdb
REMARK  161 active torsions:
REMARK  status: ('A' for Active; 'I' for Inactive)
REMARK    1  A    between atoms: _1  and  _3
REMARK    2  A    between atoms: _3  and  _4
REMARK    3  A    between atoms: _3  and  _6
REMARK    4  A    between atoms: _6  and  _7
REMARK    5  A    between atoms: _13  and  _14
REMARK    6  A    between atoms: _19  and  _21
REMARK    7  A    between atoms: _21  and  _22
REMARK    8  A    between atoms: _21  and  _24
REMARK    9  A    between atoms: _24  and  _25
REMARK   10  A    between atoms: _29  and  _30
REMARK   11  A    between atoms: _35  and  _37
REMARK   12  A    between atoms: _37  and  _38
REMARK   13  A    between atoms: _37  and  _40
REMARK   14  A    between atoms: _40  and  _41
REMARK   15  A    between atoms: _43  and  _45
REMARK   16  A    between atoms: _45  and  _46
REMARK   17  A    between atoms: _45  and  _48
REMARK   18  A    between atoms: _48  and  _49
REMARK   19  A    between atoms: _52  and  _54
REMARK   20  A    between atoms: _54  and  _55
REMARK   21  A    between atoms: _54  and  _57
REMARK   22  A    between atoms: _57  and  _58
REMARK   23  A    between atoms: _64  and  _66
REMARK   24  A    between atoms: _66  and  _67
REMARK   25  A    between atoms: _66  and  _69
REMARK   26  A    between atoms: _72  and  _74
REMARK   27  A    between atoms: _74  and  _75
REMARK   28  A    between atoms: _74  and  _77
REMARK   29  A    between atoms: _77  and  _78
REMARK   30  A    between atoms: _81  and  _83
REMARK   31  A    between atoms: _83  and  _84
REMARK   32  A    between atoms: _83  and  _86
REMARK   33  A    between atoms: _86  and  _87
REMARK   34  A    between atoms: _93  and  _95
REMARK   35  A    between atoms: _95  and  _96
REMARK   36  A    between atoms: _95  and  _98
REMARK   37  A    between atoms: _98  and  _99
REMARK   38  A    between atoms: _99  and  _100
REMARK   39  A    between atoms: _100  and  _101
REMARK   40  A    between atoms: _110  and  _112
REMARK   41  A    between atoms: _112  and  _113
REMARK   42  A    between atoms: _112  and  _115
REMARK   43  A    between atoms: _115  and  _116
REMARK   44  A    between atoms: _116  and  _117
REMARK   45  A    between atoms: _117  and  _118
REMARK   46  A    between atoms: _128  and  _129
REMARK   47  A    between atoms: _135  and  _136
REMARK   48  A    between atoms: _141  and  _143
REMARK   49  A    between atoms: _143  and  _144
REMARK   50  A    between atoms: _143  and  _146
REMARK   51  A    between atoms: _146  and  _147
REMARK   52  A    between atoms: _157  and  _159
REMARK   53  A    between atoms: _159  and  _160
REMARK   54  A    between atoms: _159  and  _162
REMARK   55  A    between atoms: _162  and  _163
REMARK   56  A    between atoms: _169  and  _171
REMARK   57  A    between atoms: _171  and  _172
REMARK   58  A    between atoms: _171  and  _174
REMARK   59  A    between atoms: _174  and  _175
REMARK   60  A    between atoms: _176  and  FE_434
REMARK   61  A    between atoms: _180  and  _182
REMARK   62  A    between atoms: _182  and  _183
REMARK   63  A    between atoms: _182  and  _185
REMARK   64  A    between atoms: _185  and  _186
REMARK   65  A    between atoms: _186  and  _187
REMARK   66  A    between atoms: _187  and  _188
REMARK   67  A    between atoms: _197  and  _199
REMARK   68  A    between atoms: _199  and  _200
REMARK   69  A    between atoms: _199  and  _202
REMARK   70  A    between atoms: _202  and  _203
REMARK   71  A    between atoms: _208  and  _210
REMARK   72  A    between atoms: _210  and  _211
REMARK   73  A    between atoms: _210  and  _213
REMARK   74  A    between atoms: _213  and  _214
REMARK   75  A    between atoms: _214  and  _215
REMARK   76  A    between atoms: _218  and  _220
REMARK   77  A    between atoms: _220  and  _221
REMARK   78  A    between atoms: _220  and  _223
REMARK   79  A    between atoms: _223  and  _224
REMARK   80  A    between atoms: _230  and  _232
REMARK   81  A    between atoms: _232  and  _233
REMARK   82  A    between atoms: _232  and  _235
REMARK   83  A    between atoms: _235  and  _236
REMARK   84  A    between atoms: _236  and  _237
REMARK   85  A    between atoms: _239  and  _241
REMARK   86  A    between atoms: _241  and  _242
REMARK   87  A    between atoms: _241  and  _244
REMARK   88  A    between atoms: _244  and  _245
REMARK   89  A    between atoms: _250  and  _251
REMARK   90  A    between atoms: _253  and  _255
REMARK   91  A    between atoms: _255  and  _256
REMARK   92  A    between atoms: _255  and  _258
REMARK   93  A    between atoms: _258  and  _259
REMARK   94  A    between atoms: _262  and  _264
REMARK   95  A    between atoms: _264  and  _265
REMARK   96  A    between atoms: _268  and  _270
REMARK   97  A    between atoms: _270  and  _271
REMARK   98  A    between atoms: _270  and  _273
REMARK   99  A    between atoms: _273  and  _274
REMARK  100  A    between atoms: _274  and  _275
REMARK  101  A    between atoms: _275  and  _276
REMARK  102  A    between atoms: _276  and  _277
REMARK  103  A    between atoms: _281  and  _283
REMARK  104  A    between atoms: _283  and  _284
REMARK  105  A    between atoms: _283  and  _286
REMARK  106  A    between atoms: _286  and  _287
REMARK  107  A    between atoms: _293  and  _295
REMARK  108  A    between atoms: _295  and  _296
REMARK  109  A    between atoms: _295  and  _298
REMARK  110  A    between atoms: _298  and  _299
REMARK  111  A    between atoms: _301  and  _303
REMARK  112  A    between atoms: _303  and  _304
REMARK  113  A    between atoms: _303  and  _306
REMARK  114  A    between atoms: _306  and  _307
REMARK  115  A    between atoms: _312  and  _314
REMARK  116  A    between atoms: _314  and  _315
REMARK  117  A    between atoms: _314  and  _317
REMARK  118  A    between atoms: _317  and  _318
REMARK  119  A    between atoms: _322  and  FE_434
REMARK  120  A    between atoms: _323  and  _325
REMARK  121  A    between atoms: _325  and  _326
REMARK  122  A    between atoms: _329  and  _330
REMARK  123  A    between atoms: _335  and  _337
REMARK  124  A    between atoms: _337  and  _338
REMARK  125  A    between atoms: _337  and  _340
REMARK  126  A    between atoms: _340  and  _341
REMARK  127  A    between atoms: _344  and  _346
REMARK  128  A    between atoms: _346  and  _347
REMARK  129  A    between atoms: _346  and  _349
REMARK  130  A    between atoms: _349  and  _350
REMARK  131  A    between atoms: _356  and  _358
REMARK  132  A    between atoms: _358  and  _359
REMARK  133  A    between atoms: _358  and  _361
REMARK  134  A    between atoms: _361  and  _362
REMARK  135  A    between atoms: _362  and  _363
REMARK  136  A    between atoms: _365  and  _367
REMARK  137  A    between atoms: _367  and  _368
REMARK  138  A    between atoms: _367  and  _370
REMARK  139  A    between atoms: _370  and  _371
REMARK  140  A    between atoms: _371  and  _372
REMARK  141  A    between atoms: _375  and  _377
REMARK  142  A    between atoms: _377  and  _378
REMARK  143  A    between atoms: _377  and  _380
REMARK  144  A    between atoms: _380  and  _381
REMARK  145  A    between atoms: _386  and  _387
REMARK  146  A    between atoms: _389  and  _391
REMARK  147  A    between atoms: _391  and  _392
REMARK  148  A    between atoms: _391  and  _394
REMARK  149  A    between atoms: _394  and  _395
REMARK  150  A    between atoms: _405  and  _407
REMARK  151  A    between atoms: _407  and  _408
REMARK  152  A    between atoms: _407  and  _410
REMARK  153  A    between atoms: _410  and  _411
REMARK  154  A    between atoms: _414  and  _416
REMARK  155  A    between atoms: _416  and  _417
REMARK  156  A    between atoms: _416  and  _419
REMARK  157  A    between atoms: _419  and  _420
REMARK  158  A    between atoms: _422  and  _424
REMARK  159  A    between atoms: _424  and  _425
REMARK  160  A    between atoms: _424  and  _427
REMARK  161  A    between atoms: _427  and  _428
REMARK                            x       y       z     vdW  Elec       q    Type
REMARK                         _______ _______ _______ _____ _____    ______ ____
ROOT
ATOM      1  CA  ILE A   2      11.685  34.365  -4.124  0.00  0.00    +0.148 C 
ENDROOT
BRANCH   1   4
ATOM      2  C   VAL A   1      10.221  36.294  -4.262  0.00  0.00    +0.238 C 
ATOM      3  O   VAL A   1      10.136  36.329  -3.035  0.00  0.00    -0.274 OA
ATOM      4  N   ILE A   2      10.960  35.386  -4.893  0.00  0.00    -0.297 N 
ATOM      5  H   ILE A   2      11.025  35.399  -5.931  0.00  0.00    +0.150 HD
BRANCH   2   6
ATOM      6  CA  VAL A   1       9.441  37.302  -5.127  0.00  0.00    +0.145 C 
BRANCH   6   7
ATOM      7  CB  VAL A   1      10.218  38.632  -5.247  0.00  0.00    +0.025 C 
ATOM      8  CG2 VAL A   1      11.710  38.420  -5.266  0.00  0.00    +0.002 C 
ATOM      9  CG1 VAL A   1       9.714  39.440  -6.458  0.00  0.00    +0.002 C 
ENDBRANCH   6   7
BRANCH   6  10
ATOM     10  N   VAL A   1       8.147  37.589  -4.526  0.00  0.00    -0.238 NA
ATOM     11  H   VAL A   1       8.127  37.869  -3.524  0.00  0.00    +0.142 HD
ENDBRANCH   6  10
ENDBRANCH   2   6
ENDBRANCH   1   4
BRANCH   1  12
ATOM     12  C   ILE A   2      13.164  34.373  -4.413  0.00  0.00    +0.241 C 
ATOM     13  N   PHE A   3      13.949  33.844  -3.475  0.00  0.00    -0.298 N 
ATOM     14  H   PHE A   3      13.526  33.521  -2.581  0.00  0.00    +0.150 HD
ATOM     15  O   ILE A   2      13.587  34.840  -5.465  0.00  0.00    -0.273 OA
BRANCH  13  16
ATOM     16  CA  PHE A   3      15.382  33.708  -3.673  0.00  0.00    +0.141 C 
BRANCH  16  17
ATOM     17  C   PHE A   3      15.720  32.235  -3.511  0.00  0.00    +0.227 C 
ATOM     18  O   PHE A   3      15.880  31.735  -2.393  0.00  0.00    -0.286 OA
ENDBRANCH  16  17
BRANCH  16  19
ATOM     19  CB  PHE A   3      16.165  34.640  -2.723  0.00  0.00    +0.054 C 
BRANCH  19  20
ATOM     20  CG  PHE A   3      15.700  36.080  -2.796  0.00  0.00    -0.020 A 
ATOM     21  CD2 PHE A   3      14.685  36.538  -1.973  0.00  0.00    -0.004 A 
ATOM     22  CE2 PHE A   3      14.236  37.842  -2.050  0.00  0.00    -0.000 A 
ATOM     23  CZ  PHE A   3      14.776  38.696  -2.973  0.00  0.00    -0.000 A 
ATOM     24  CE1 PHE A   3      15.777  38.250  -3.820  0.00  0.00    -0.000 A 
ATOM     25  CD1 PHE A   3      16.229  36.944  -3.733  0.00  0.00    -0.004 A 
ENDBRANCH  19  20
ENDBRANCH  16  19
ENDBRANCH  13  16
ENDBRANCH   1  12
BRANCH   1  26
ATOM     26  CB  ILE A   2      11.153  32.928  -4.395  0.00  0.00    +0.027 C 
ATOM     27  CG2 ILE A   2       9.681  32.820  -4.010  0.00  0.00    +0.002 C 
BRANCH  26  28
ATOM     28  CG1 ILE A   2      11.366  32.517  -5.858  0.00  0.00    +0.002 C 
ATOM     29  CD1 ILE A   2      10.850  31.070  -6.152  0.00  0.00    +0.000 C 
ENDBRANCH  26  28
ENDBRANCH   1  26
TORSDOF 11
REMARK  Name = ../refined-set-2016/4aq6/4aq6_pocket.pdb
REMARK  161 active torsions:
REMARK  status: ('A' for Active; 'I' for Inactive)
REMARK    1  A    between atoms: _1  and  _3
REMARK    2  A    between atoms: _3  and  _4
REMARK    3  A    between atoms: _3  and  _6
REMARK    4  A    between atoms: _6  and  _7
REMARK    5  A    between atoms: _13  and  _14
REMARK    6  A    between atoms: _19  and  _21
REMARK    7  A    between atoms: _21  and  _22
REMARK    8  A    between atoms: _21  and  _24
REMARK    9  A    between atoms: _24  and  _25
REMARK   10  A    between atoms: _29  and  _30
REMARK   11  A    between atoms: _35  and  _37
REMARK   12  A    between atoms: _37  and  _38
REMARK   13  A    between atoms: _37  and  _40
REMARK   14  A    between atoms: _40  and  _41
REMARK   15  A    between atoms: _43  and  _45
REMARK   16  A    between atoms: _45  and  _46
REMARK   17  A    between atoms: _45  and  _48
REMARK   18  A    between atoms: _48  and  _49
REMARK   19  A    between atoms: _52  and  _54
REMARK   20  A    between atoms: _54  and  _55
REMARK   21  A    between atoms: _54  and  _57
REMARK   22  A    between atoms: _57  and  _58
REMARK   23  A    between atoms: _64  and  _66
REMARK   24  A    between atoms: _66  and  _67
REMARK   25  A    between atoms: _66  and  _69
REMARK   26  A    between atoms: _72  and  _74
REMARK   27  A    between atoms: _74  and  _75
REMARK   28  A    between atoms: _74  and  _77
REMARK   29  A    between atoms: _77  and  _78
REMARK   30  A    between atoms: _81  and  _83
REMARK   31  A    between atoms: _83  and  _84
REMARK   32  A    between atoms: _83  and  _86
REMARK   33  A    between atoms: _86  and  _87
REMARK   34  A    between atoms: _93  and  _95
REMARK   35  A    between atoms: _95  and  _96
REMARK   36  A    between atoms: _95  and  _98
REMARK   37  A    between atoms: _98  and  _99
REMARK   38  A    between atoms: _99  and  _100
REMARK   39  A    between atoms: _100  and  _101
REMARK   40  A    between atoms: _110  and  _112
REMARK   41  A    between atoms: _112  and  _113
REMARK   42  A    between atoms: _112  and  _115
REMARK   43  A    between atoms: _115  and  _116
REMARK   44  A    between atoms: _116  and  _117
REMARK   45  A    between atoms: _117  and  _118
REMARK   46  A    between atoms: _128  and  _129
REMARK   47  A    between atoms: _135  and  _136
REMARK   48  A    between atoms: _141  and  _143
REMARK   49  A    between atoms: _143  and  _144
REMARK   50  A    between atoms: _143  and  _146
REMARK   51  A    between atoms: _146  and  _147
REMARK   52  A    between atoms: _157  and  _159
REMARK   53  A    between atoms: _159  and  _160
REMARK   54  A    between atoms: _159  and  _162
REMARK   55  A    between atoms: _162  and  _163
REMARK   56  A    between atoms: _169  and  _171
REMARK   57  A    between atoms: _171  and  _172
REMARK   58  A    between atoms: _171  and  _174
REMARK   59  A    between atoms: _174  and  _175
REMARK   60  A    between atoms: _176  and  FE_434
REMARK   61  A    between atoms: _180  and  _182
REMARK   62  A    between atoms: _182  and  _183
REMARK   63  A    between atoms: _182  and  _185
REMARK   64  A    between atoms: _185  and  _186
REMARK   65  A    between atoms: _186  and  _187
REMARK   66  A    between atoms: _187  and  _188
REMARK   67  A    between atoms: _197  and  _199
REMARK   68  A    between atoms: _199  and  _200
REMARK   69  A    between atoms: _199  and  _202
REMARK   70  A    between atoms: _202  and  _203
REMARK   71  A    between atoms: _208  and  _210
REMARK   72  A    between atoms: _210  and  _211
REMARK   73  A    between atoms: _210  and  _213
REMARK   74  A    between atoms: _213  and  _214
REMARK   75  A    between atoms: _214  and  _215
REMARK   76  A    between atoms: _218  and  _220
REMARK   77  A    between atoms: _220  and  _221
REMARK   78  A    between atoms: _220  and  _223
REMARK   79  A    between atoms: _223  and  _224
REMARK   80  A    between atoms: _230  and  _232
REMARK   81  A    between atoms: _232  and  _233
REMARK   82  A    between atoms: _232  and  _235
REMARK   83  A    between atoms: _235  and  _236
REMARK   84  A    between atoms: _236  and  _237
REMARK   85  A    between atoms: _239  and  _241
REMARK   86  A    between atoms: _241  and  _242
REMARK   87  A    between atoms: _241  and  _244
REMARK   88  A    between atoms: _244  and  _245
REMARK   89  A    between atoms: _250  and  _251
REMARK   90  A    between atoms: _253  and  _255
REMARK   91  A    between atoms: _255  and  _256
REMARK   92  A    between atoms: _255  and  _258
REMARK   93  A    between atoms: _258  and  _259
REMARK   94  A    between atoms: _262  and  _264
REMARK   95  A    between atoms: _264  and  _265
REMARK   96  A    between atoms: _268  and  _270
REMARK   97  A    between atoms: _270  and  _271
REMARK   98  A    between atoms: _270  and  _273
REMARK   99  A    between atoms: _273  and  _274
REMARK  100  A    between atoms: _274  and  _275
REMARK  101  A    between atoms: _275  and  _276
REMARK  102  A    between atoms: _276  and  _277
REMARK  103  A    between atoms: _281  and  _283
REMARK  104  A    between atoms: _283  and  _284
REMARK  105  A    between atoms: _283  and  _286
REMARK  106  A    between atoms: _286  and  _287
REMARK  107  A    between atoms: _293  and  _295
REMARK  108  A    between atoms: _295  and  _296
REMARK  109  A    between atoms: _295  and  _298
REMARK  110  A    between atoms: _298  and  _299
REMARK  111  A    between atoms: _301  and  _303
REMARK  112  A    between atoms: _303  and  _304
REMARK  113  A    between atoms: _303  and  _306
REMARK  114  A    between atoms: _306  and  _307
REMARK  115  A    between atoms: _312  and  _314
REMARK  116  A    between atoms: _314  and  _315
REMARK  117  A    between atoms: _314  and  _317
REMARK  118  A    between atoms: _317  and  _318
REMARK  119  A    between atoms: _322  and  FE_434
REMARK  120  A    between atoms: _323  and  _325
REMARK  121  A    between atoms: _325  and  _326
REMARK  122  A    between atoms: _329  and  _330
REMARK  123  A    between atoms: _335  and  _337
REMARK  124  A    between atoms: _337  and  _338
REMARK  125  A    between atoms: _337  and  _340
REMARK  126  A    between atoms: _340  and  _341
REMARK  127  A    between atoms: _344  and  _346
REMARK  128  A    between atoms: _346  and  _347
REMARK  129  A    between atoms: _346  and  _349
REMARK  130  A    between atoms: _349  and  _350
REMARK  131  A    between atoms: _356  and  _358
REMARK  132  A    between atoms: _358  and  _359
REMARK  133  A    between atoms: _358  and  _361
REMARK  134  A    between atoms: _361  and  _362
REMARK  135  A    between atoms: _362  and  _363
REMARK  136  A    between atoms: _365  and  _367
REMARK  137  A    between atoms: _367  and  _368
REMARK  138  A    between atoms: _367  and  _370
REMARK  139  A    between atoms: _370  and  _371
REMARK  140  A    between atoms: _371  and  _372
REMARK  141  A    between atoms: _375  and  _377
REMARK  142  A    between atoms: _377  and  _378
REMARK  143  A    between atoms: _377  and  _380
REMARK  144  A    between atoms: _380  and  _381
REMARK  145  A    between atoms: _386  and  _387
REMARK  146  A    between atoms: _389  and  _391
REMARK  147  A    between atoms: _391  and  _392
REMARK  148  A    between atoms: _391  and  _394
REMARK  149  A    between atoms: _394  and  _395
REMARK  150  A    between atoms: _405  and  _407
REMARK  151  A    between atoms: _407  and  _408
REMARK  152  A    between atoms: _407  and  _410
REMARK  153  A    between atoms: _410  and  _411
REMARK  154  A    between atoms: _414  and  _416
REMARK  155  A    between atoms: _416  and  _417
REMARK  156  A    between atoms: _416  and  _419
REMARK  157  A    between atoms: _419  and  _420
REMARK  158  A    between atoms: _422  and  _424
REMARK  159  A    between atoms: _424  and  _425
REMARK  160  A    between atoms: _424  and  _427
REMARK  161  A    between atoms: _427  and  _428
REMARK                            x       y       z     vdW  Elec       q    Type
REMARK                         _______ _______ _______ _____ _____    ______ ____
ROOT
ATOM      1  NE  ARG A   1      20.110  33.774  -6.011  0.00  0.00    -0.265 N 
ATOM      2  CZ  ARG A   1      19.983  33.701  -4.687  0.00  0.00    +0.342 C 
ATOM      3  NH2 ARG A   1      20.523  34.637  -3.917  0.00  0.00    -0.292 N 
ATOM      4 HH21 ARG A   1      20.424  34.581  -2.883  0.00  0.00    +0.255 HD
ATOM      5 HH22 ARG A   1      21.045  35.427  -4.347  0.00  0.00    +0.255 HD
ATOM      6  NH1 ARG A   1      19.334  32.687  -4.126  0.00  0.00    -0.292 N 
ATOM      7 HH11 ARG A   1      19.240  32.638  -3.091  0.00  0.00    +0.255 HD
ATOM      8 HH12 ARG A   1      18.920  31.942  -4.721  0.00  0.00    +0.255 HD
ATOM      9  HE  ARG A   1      20.635  34.582  -6.402  0.00  0.00    +0.259 HD
ENDROOT
BRANCH   1  10
ATOM     10  CD  ARG A   1      19.566  32.802  -6.951  0.00  0.00    +0.174 C 
BRANCH  10  11
ATOM     11  CG  ARG A   1      20.502  31.616  -7.168  0.00  0.00    +0.045 C 
BRANCH  11  12
ATOM     12  CB  ARG A   1      19.945  30.686  -8.236  0.00  0.00    +0.029 C 
BRANCH  12  13
ATOM     13  CA  ARG A   1      20.545  29.279  -8.233  0.00  0.00    +0.133 C 
BRANCH  13  14
ATOM     14  N   ARG A   1      20.244  28.608  -6.969  0.00  0.00    -0.239 NA
ATOM     15  H   ARG A   1      21.004  28.450  -6.277  0.00  0.00    +0.142 HD
ENDBRANCH  13  14
BRANCH  13  16
ATOM     16  C   ARG A   1      22.030  29.378  -8.522  0.00  0.00    +0.224 C 
ATOM     17  O   ARG A   1      22.834  29.555  -7.626  0.00  0.00    -0.287 OA
ENDBRANCH  13  16
ENDBRANCH  12  13
ENDBRANCH  11  12
ENDBRANCH  10  11
ENDBRANCH   1  10
TORSDOF 6
REMARK  Name = ../refined-set-2016/4aq6/4aq6_pocket.pdb
REMARK  161 active torsions:
REMARK  status: ('A' for Active; 'I' for Inactive)
REMARK    1  A    between atoms: _1  and  _3
REMARK    2  A    between atoms: _3  and  _4
REMARK    3  A    between atoms: _3  and  _6
REMARK    4  A    between atoms: _6  and  _7
REMARK    5  A    between atoms: _13  and  _14
REMARK    6  A    between atoms: _19  and  _21
REMARK    7  A    between atoms: _21  and  _22
REMARK    8  A    between atoms: _21  and  _24
REMARK    9  A    between atoms: _24  and  _25
REMARK   10  A    between atoms: _29  and  _30
REMARK   11  A    between atoms: _35  and  _37
REMARK   12  A    between atoms: _37  and  _38
REMARK   13  A    between atoms: _37  and  _40
REMARK   14  A    between atoms: _40  and  _41
REMARK   15  A    between atoms: _43  and  _45
REMARK   16  A    between atoms: _45  and  _46
REMARK   17  A    between atoms: _45  and  _48
REMARK   18  A    between atoms: _48  and  _49
REMARK   19  A    between atoms: _52  and  _54
REMARK   20  A    between atoms: _54  and  _55
REMARK   21  A    between atoms: _54  and  _57
REMARK   22  A    between atoms: _57  and  _58
REMARK   23  A    between atoms: _64  and  _66
REMARK   24  A    between atoms: _66  and  _67
REMARK   25  A    between atoms: _66  and  _69
REMARK   26  A    between atoms: _72  and  _74
REMARK   27  A    between atoms: _74  and  _75
REMARK   28  A    between atoms: _74  and  _77
REMARK   29  A    between atoms: _77  and  _78
REMARK   30  A    between atoms: _81  and  _83
REMARK   31  A    between atoms: _83  and  _84
REMARK   32  A    between atoms: _83  and  _86
REMARK   33  A    between atoms: _86  and  _87
REMARK   34  A    between atoms: _93  and  _95
REMARK   35  A    between atoms: _95  and  _96
REMARK   36  A    between atoms: _95  and  _98
REMARK   37  A    between atoms: _98  and  _99
REMARK   38  A    between atoms: _99  and  _100
REMARK   39  A    between atoms: _100  and  _101
REMARK   40  A    between atoms: _110  and  _112
REMARK   41  A    between atoms: _112  and  _113
REMARK   42  A    between atoms: _112  and  _115
REMARK   43  A    between atoms: _115  and  _116
REMARK   44  A    between atoms: _116  and  _117
REMARK   45  A    between atoms: _117  and  _118
REMARK   46  A    between atoms: _128  and  _129
REMARK   47  A    between atoms: _135  and  _136
REMARK   48  A    between atoms: _141  and  _143
REMARK   49  A    between atoms: _143  and  _144
REMARK   50  A    between atoms: _143  and  _146
REMARK   51  A    between atoms: _146  and  _147
REMARK   52  A    between atoms: _157  and  _159
REMARK   53  A    between atoms: _159  and  _160
REMARK   54  A    between atoms: _159  and  _162
REMARK   55  A    between atoms: _162  and  _163
REMARK   56  A    between atoms: _169  and  _171
REMARK   57  A    between atoms: _171  and  _172
REMARK   58  A    between atoms: _171  and  _174
REMARK   59  A    between atoms: _174  and  _175
REMARK   60  A    between atoms: _176  and  FE_434
REMARK   61  A    between atoms: _180  and  _182
REMARK   62  A    between atoms: _182  and  _183
REMARK   63  A    between atoms: _182  and  _185
REMARK   64  A    between atoms: _185  and  _186
REMARK   65  A    between atoms: _186  and  _187
REMARK   66  A    between atoms: _187  and  _188
REMARK   67  A    between atoms: _197  and  _199
REMARK   68  A    between atoms: _199  and  _200
REMARK   69  A    between atoms: _199  and  _202
REMARK   70  A    between atoms: _202  and  _203
REMARK   71  A    between atoms: _208  and  _210
REMARK   72  A    between atoms: _210  and  _211
REMARK   73  A    between atoms: _210  and  _213
REMARK   74  A    between atoms: _213  and  _214
REMARK   75  A    between atoms: _214  and  _215
REMARK   76  A    between atoms: _218  and  _220
REMARK   77  A    between atoms: _220  and  _221
REMARK   78  A    between atoms: _220  and  _223
REMARK   79  A    between atoms: _223  and  _224
REMARK   80  A    between atoms: _230  and  _232
REMARK   81  A    between atoms: _232  and  _233
REMARK   82  A    between atoms: _232  and  _235
REMARK   83  A    between atoms: _235  and  _236
REMARK   84  A    between atoms: _236  and  _237
REMARK   85  A    between atoms: _239  and  _241
REMARK   86  A    between atoms: _241  and  _242
REMARK   87  A    between atoms: _241  and  _244
REMARK   88  A    between atoms: _244  and  _245
REMARK   89  A    between atoms: _250  and  _251
REMARK   90  A    between atoms: _253  and  _255
REMARK   91  A    between atoms: _255  and  _256
REMARK   92  A    between atoms: _255  and  _258
REMARK   93  A    between atoms: _258  and  _259
REMARK   94  A    between atoms: _262  and  _264
REMARK   95  A    between atoms: _264  and  _265
REMARK   96  A    between atoms: _268  and  _270
REMARK   97  A    between atoms: _270  and  _271
REMARK   98  A    between atoms: _270  and  _273
REMARK   99  A    between atoms: _273  and  _274
REMARK  100  A    between atoms: _274  and  _275
REMARK  101  A    between atoms: _275  and  _276
REMARK  102  A    between atoms: _276  and  _277
REMARK  103  A    between atoms: _281  and  _283
REMARK  104  A    between atoms: _283  and  _284
REMARK  105  A    between atoms: _283  and  _286
REMARK  106  A    between atoms: _286  and  _287
REMARK  107  A    between atoms: _293  and  _295
REMARK  108  A    between atoms: _295  and  _296
REMARK  109  A    between atoms: _295  and  _298
REMARK  110  A    between atoms: _298  and  _299
REMARK  111  A    between atoms: _301  and  _303
REMARK  112  A    between atoms: _303  and  _304
REMARK  113  A    between atoms: _303  and  _306
REMARK  114  A    between atoms: _306  and  _307
REMARK  115  A    between atoms: _312  and  _314
REMARK  116  A    between atoms: _314  and  _315
REMARK  117  A    between atoms: _314  and  _317
REMARK  118  A    between atoms: _317  and  _318
REMARK  119  A    between atoms: _322  and  FE_434
REMARK  120  A    between atoms: _323  and  _325
REMARK  121  A    between atoms: _325  and  _326
REMARK  122  A    between atoms: _329  and  _330
REMARK  123  A    between atoms: _335  and  _337
REMARK  124  A    between atoms: _337  and  _338
REMARK  125  A    between atoms: _337  and  _340
REMARK  126  A    between atoms: _340  and  _341
REMARK  127  A    between atoms: _344  and  _346
REMARK  128  A    between atoms: _346  and  _347
REMARK  129  A    between atoms: _346  and  _349
REMARK  130  A    between atoms: _349  and  _350
REMARK  131  A    between atoms: _356  and  _358
REMARK  132  A    between atoms: _358  and  _359
REMARK  133  A    between atoms: _358  and  _361
REMARK  134  A    between atoms: _361  and  _362
REMARK  135  A    between atoms: _362  and  _363
REMARK  136  A    between atoms: _365  and  _367
REMARK  137  A    between atoms: _367  and  _368
REMARK  138  A    between atoms: _367  and  _370
REMARK  139  A    between atoms: _370  and  _371
REMARK  140  A    between atoms: _371  and  _372
REMARK  141  A    between atoms: _375  and  _377
REMARK  142  A    between atoms: _377  and  _378
REMARK  143  A    between atoms: _377  and  _380
REMARK  144  A    between atoms: _380  and  _381
REMARK  145  A    between atoms: _386  and  _387
REMARK  146  A    between atoms: _389  and  _391
REMARK  147  A    between atoms: _391  and  _392
REMARK  148  A    between atoms: _391  and  _394
REMARK  149  A    between atoms: _394  and  _395
REMARK  150  A    between atoms: _405  and  _407
REMARK  151  A    between atoms: _407  and  _408
REMARK  152  A    between atoms: _407  and  _410
REMARK  153  A    between atoms: _410  and  _411
REMARK  154  A    between atoms: _414  and  _416
REMARK  155  A    between atoms: _416  and  _417
REMARK  156  A    between atoms: _416  and  _419
REMARK  157  A    between atoms: _419  and  _420
REMARK  158  A    between atoms: _422  and  _424
REMARK  159  A    between atoms: _424  and  _425
REMARK  160  A    between atoms: _424  and  _427
REMARK  161  A    between atoms: _427  and  _428
REMARK                            x       y       z     vdW  Elec       q    Type
REMARK                         _______ _______ _______ _____ _____    ______ ____
ROOT
ATOM      1  C   UNK A   6      19.860  49.912  -1.746  0.00  0.00    +0.000 C 
ENDROOT
BRANCH   1   3
ATOM      2  C   PHE A   5      22.169  49.258  -1.871  0.00  0.00    +0.000 C 
ATOM      3  N   UNK A   6      21.135  49.593  -1.120  0.00  0.00    +0.000 N 
ATOM      4  H   UNK A   6      21.232  49.629  -0.085  0.00  0.00    +0.000 HD
ATOM      5  O   PHE A   5      22.208  49.478  -3.084  0.00  0.00    +0.000 OA
BRANCH   2   6
ATOM      6  CA  PHE A   5      23.311  48.538  -1.175  0.00  0.00    +0.000 C 
BRANCH   6   8
ATOM      7  C   ASP A   4      23.151  46.713  -2.737  0.00  0.00    +0.000 C 
ATOM      8  N   PHE A   5      23.893  47.653  -2.168  0.00  0.00    +0.000 N 
ATOM      9  H   PHE A   5      24.893  47.757  -2.433  0.00  0.00    +0.000 HD
ATOM     10  O   ASP A   4      22.021  46.420  -2.328  0.00  0.00    +0.000 OA
BRANCH   7  11
ATOM     11  CA  ASP A   4      23.763  45.993  -3.932  0.00  0.00    +0.000 C 
BRANCH  11  14
ATOM     12  C   MET A   3      23.355  43.709  -3.204  0.00  0.00    +0.000 C 
ATOM     13  O   MET A   3      24.169  43.812  -2.287  0.00  0.00    +0.000 OA
ATOM     14  N   ASP A   4      23.153  44.674  -4.102  0.00  0.00    +0.000 N 
ATOM     15  H   ASP A   4      22.555  44.487  -4.932  0.00  0.00    +0.000 HD
BRANCH  12  21
ATOM     16  C   PHE A   2      24.506  41.102  -3.622  0.00  0.00    +0.000 C 
ATOM     17  N   MET A   3      23.304  41.233  -3.054  0.00  0.00    +0.000 N 
ATOM     18  CD  MET A   3      22.549  40.266  -2.235  0.00  0.00    +0.000 C 
ATOM     19  CG  MET A   3      21.176  40.886  -2.141  0.00  0.00    +0.000 C 
ATOM     20  CB  MET A   3      21.389  42.379  -2.332  0.00  0.00    +0.000 C 
ATOM     21  CA  MET A   3      22.523  42.436  -3.362  0.00  0.00    +0.000 C 
ATOM     22  O   PHE A   2      24.942  41.909  -4.453  0.00  0.00    +0.000 OA
BRANCH  16  25
ATOM     23  C   UNK A   1      26.313  39.286  -5.325  0.00  0.00    +0.000 C 
ATOM     24  N   PHE A   2      26.509  39.745  -4.081  0.00  0.00    +0.000 N 
ATOM     25  CA  PHE A   2      25.348  39.905  -3.197  0.00  0.00    +0.000 C 
ATOM     26  CB  PHE A   2      25.974  40.163  -1.816  0.00  0.00    +0.000 C 
ATOM     27  CG  PHE A   2      27.459  39.775  -1.953  0.00  0.00    +0.000 C 
ATOM     28  CD  PHE A   2      27.794  39.986  -3.393  0.00  0.00    +0.000 C 
ATOM     29  O   UNK A   1      25.205  38.934  -5.732  0.00  0.00    +0.000 OA
BRANCH  23  30
ATOM     30  C   UNK A   1      27.532  39.189  -6.244  0.00  0.00    +0.000 C 
BRANCH  30  31
ATOM     31  N   UNK A   1      28.627  40.126  -5.989  0.00  0.00    +0.000 NA
ATOM     32  H   UNK A   1      29.473  39.790  -5.487  0.00  0.00    +0.000 HD
ENDBRANCH  30  31
BRANCH  30  33
ATOM     33  C   UNK A   1      28.075  37.763  -6.280  0.00  0.00    +0.000 C 
BRANCH  33  34
ATOM     34  C   UNK A   1      28.731  37.424  -7.600  0.00  0.00    +0.000 C 
BRANCH  34  35
ATOM     35  C   UNK A   1      29.334  36.042  -7.579  0.00  0.00    +0.000 C 
BRANCH  35  36
ATOM     36  N   UNK A   1      29.921  35.710  -8.867  0.00  0.00    +0.330 N 
ATOM     37  C   UNK A   1      30.492  34.544  -9.141  0.00  0.00    +0.000 C 
ATOM     38  N   UNK A   1      30.546  33.612  -8.202  0.00  0.00    +0.330 N 
ATOM     39  H   UNK A   1      30.143  33.798  -7.261  0.00  0.00    +0.000 HD
ATOM     40  H   UNK A   1      30.991  32.694  -8.405  0.00  0.00    +0.000 HD
ATOM     41  N   UNK A   1      31.000  34.309 -10.344  0.00  0.00    +0.330 N 
ATOM     42  H   UNK A   1      31.446  33.392 -10.550  0.00  0.00    +0.000 HD
ATOM     43  H   UNK A   1      30.952  35.042 -11.081  0.00  0.00    +0.000 HD
ATOM     44  H   UNK A   1      29.892  36.429  -9.618  0.00  0.00    +0.000 HD
ENDBRANCH  35  36
ENDBRANCH  34  35
ENDBRANCH  33  34
ENDBRANCH  30  33
ENDBRANCH  23  30
ENDBRANCH  16  25
ENDBRANCH  12  21
ENDBRANCH  11  14
BRANCH  11  45
ATOM     45  CB  ASP A   4      23.595  46.860  -5.188  0.00  0.00    +0.000 C 
BRANCH  45  46
ATOM     46  CG  ASP A   4      22.798  46.233  -6.295  0.00  0.00    +0.000 A 
ATOM     47  CD2 ASP A   4      21.374  46.289  -6.470  0.00  0.00    +0.000 A 
ATOM     48  CE3 ASP A   4      20.331  46.884  -5.749  0.00  0.00    +0.000 A 
ATOM     49  CZ3 ASP A   4      19.016  46.732  -6.220  0.00  0.00    +0.000 A 
ATOM     50  CH2 ASP A   4      18.746  46.009  -7.400  0.00  0.00    +0.000 A 
ATOM     51  CZ2 ASP A   4      19.758  45.425  -8.126  0.00  0.00    +0.000 A 
ATOM     52  CE2 ASP A   4      21.068  45.573  -7.651  0.00  0.00    +0.000 A 
ATOM     53  NE1 ASP A   4      22.250  45.106  -8.162  0.00  0.00    +0.000 N 
ATOM     54  HE1 ASP A   4      22.351  44.540  -9.029  0.00  0.00    +0.000 HD
ATOM     55  CD1 ASP A   4      23.284  45.506  -7.345  0.00  0.00    +0.000 A 
ENDBRANCH  45  46
ENDBRANCH  11  45
ENDBRANCH   7  11
ENDBRANCH   6   8
BRANCH   6  56
ATOM     56  CB  PHE A   5      24.366  49.497  -0.605  0.00  0.00    +0.000 C 
BRANCH  56  57
ATOM     57  CG  PHE A   5      25.373  48.806   0.272  0.00  0.00    +0.000 A 
ATOM     58  CD2 PHE A   5      25.077  48.527   1.598  0.00  0.00    +0.000 A 
ATOM     59  CE2 PHE A   5      25.996  47.869   2.413  0.00  0.00    +0.000 A 
ATOM     60  CZ  PHE A   5      27.212  47.464   1.895  0.00  0.00    +0.000 A 
ATOM     61  CE1 PHE A   5      27.518  47.722   0.565  0.00  0.00    +0.000 A 
ATOM     62  CD1 PHE A   5      26.592  48.387  -0.242  0.00  0.00    +0.000 A 
ENDBRANCH  56  57
ENDBRANCH   6  56
ENDBRANCH   2   6
ENDBRANCH   1   3
BRANCH   1  63
ATOM     63  C   UNK A   6      18.998  50.856  -0.921  0.00  0.00    +0.000 C 
ATOM     64  O   UNK A   6      18.928  50.757   0.310  0.00  0.00    +0.000 OA
ATOM     65  N   ARG A   7      18.342  51.777  -1.621  0.00  0.00    +0.000 N 
ATOM     66  H   ARG A   7      18.607  51.929  -2.615  0.00  0.00    +0.000 HD
BRANCH  65  67
ATOM     67  CA  ARG A   7      17.262  52.586  -1.052  0.00  0.00    +0.000 C 
BRANCH  67  68
ATOM     68  C   ARG A   7      16.117  52.583  -2.087  0.00  0.00    +0.000 C 
ATOM     69  N   ASN A   8      14.900  52.298  -1.625  0.00  0.00    +0.000 N 
ATOM     70  H   ASN A   8      14.724  52.354  -0.602  0.00  0.00    +0.000 HD
ATOM     71  O   ARG A   7      16.348  52.813  -3.282  0.00  0.00    +0.000 OA
BRANCH  69  72
ATOM     72  CA  ASN A   8      13.800  51.907  -2.516  0.00  0.00    +0.000 C 
BRANCH  72  73
ATOM     73  C   ASN A   8      12.524  52.713  -2.263  0.00  0.00    +0.000 C 
ATOM     74  O   ASN A   8      12.136  52.937  -1.112  0.00  0.00    +0.000 OA
ENDBRANCH  72  73
BRANCH  72  75
ATOM     75  CB  ASN A   8      13.510  50.410  -2.315  0.00  0.00    +0.000 C 
BRANCH  75  76
ATOM     76  CG  ASN A   8      12.672  49.795  -3.434  0.00  0.00    +0.000 C 
ATOM     77  ND2 ASN A   8      12.466  48.479  -3.349  0.00  0.00    +0.000 N 
ATOM     78 HD21 ASN A   8      12.845  47.944  -2.542  0.00  0.00    +0.000 HD
ATOM     79 HD22 ASN A   8      11.926  47.988  -4.090  0.00  0.00    +0.000 HD
ATOM     80  OD1 ASN A   8      12.243  50.472  -4.371  0.00  0.00    +0.000 OA
ENDBRANCH  75  76
ENDBRANCH  72  75
ENDBRANCH  69  72
ENDBRANCH  67  68
BRANCH  67  81
ATOM     81  CB  ARG A   7      17.754  54.005  -0.747  0.00  0.00    +0.000 C 
BRANCH  81  82
ATOM     82  CG  ARG A   7      18.868  54.062   0.318  0.00  0.00    +0.000 C 
BRANCH  82  83
ATOM     83  CD  ARG A   7      19.947  55.071  -0.056  0.00  0.00    +0.000 C 
BRANCH  83  84
ATOM     84  NE  ARG A   7      19.466  56.457  -0.065  0.00  0.00    +0.330 N 
ATOM     85  HE  ARG A   7      18.521  56.646   0.325  0.00  0.00    +0.000 HD
ATOM     86  CZ  ARG A   7      20.164  57.492  -0.542  0.00  0.00    +0.000 C 
ATOM     87  NH2 ARG A   7      19.657  58.717  -0.502  0.00  0.00    +0.330 N 
ATOM     88 HH21 ARG A   7      18.712  58.876  -0.098  0.00  0.00    +0.000 HD
ATOM     89 HH22 ARG A   7      20.205  59.519  -0.875  0.00  0.00    +0.000 HD
ATOM     90  NH1 ARG A   7      21.370  57.305  -1.069  0.00  0.00    +0.330 N 
ATOM     91 HH11 ARG A   7      21.776  56.349  -1.112  0.00  0.00    +0.000 HD
ATOM     92 HH12 ARG A   7      21.907  58.115  -1.438  0.00  0.00    +0.000 HD
ENDBRANCH  83  84
ENDBRANCH  82  83
ENDBRANCH  81  82
ENDBRANCH  67  81
ENDBRANCH  65  67
ENDBRANCH   1  63
BRANCH   1  93
ATOM     93  C   UNK A   6      19.094  48.605  -2.019  0.00  0.00    +0.000 C 
BRANCH  93  94
ATOM     94  C   UNK A   6      17.954  48.748  -2.981  0.00  0.00    +0.000 A 
ATOM     95  N   UNK A   6      16.855  47.914  -2.956  0.00  0.00    +0.000 N 
ATOM     96  C   UNK A   6      16.031  48.250  -3.930  0.00  0.00    +0.000 A 
ATOM     97  N   UNK A   6      16.551  49.271  -4.587  0.00  0.00    +0.000 NA
ATOM     98  C   UNK A   6      17.752  49.606  -4.012  0.00  0.00    +0.000 A 
BRANCH  95  99
ATOM     99 FE   UNK A   6      16.103  46.401  -1.635  0.00  0.00    +0.000 Fe
ATOM    100  O   UNK A   6      14.463  45.265  -0.346  0.00  0.00    +0.000 OA
ATOM    101  C   UNK A   6      13.652  46.115  -0.771  0.00  0.00    +0.000 C 
ATOM    102  O   UNK A   6      13.994  47.049  -1.517  0.00  0.00    +0.000 OA
ATOM    103  O   UNK A   6      15.370  45.363  -3.589  0.00  0.00    +0.000 OA
BRANCH  99 104
ATOM    104  N   UNK A   6      16.524  47.444   0.204  0.00  0.00    +0.000 N 
ATOM    105  C   UNK A   6      17.337  46.844   1.137  0.00  0.00    +0.000 A 
ATOM    106  C   UNK A   6      17.580  47.761   2.104  0.00  0.00    +0.000 A 
ATOM    107  N   UNK A   6      16.886  48.897   1.740  0.00  0.00    +0.000 NA
ATOM    108  C   UNK A   6      16.269  48.681   0.592  0.00  0.00    +0.000 A 
BRANCH 106 109
ATOM    109  C   UNK A   6      18.390  47.675   3.362  0.00  0.00    +0.000 C 
BRANCH 109 110
ATOM    110  C   UNK A   6      19.643  48.569   3.364  0.00  0.00    +0.000 C 
BRANCH 110 111
ATOM    111  C   UNK A   6      20.714  48.055   2.422  0.00  0.00    +0.000 C 
ATOM    112  N   PHE A   2      20.924  46.744   2.436  0.00  0.00    +0.000 N 
ATOM    113  H   PHE A   2      20.308  46.140   3.017  0.00  0.00    +0.000 HD
ATOM    114  O   UNK A   6      21.367  48.835   1.728  0.00  0.00    +0.000 OA
BRANCH 112 115
ATOM    115  CA  PHE A   2      21.987  46.130   1.666  0.00  0.00    +0.000 C 
BRANCH 115 116
ATOM    116  C   PHE A   2      22.657  45.045   2.482  0.00  0.00    +0.000 C 
ATOM    117  O   PHE A   2      22.292  44.827   3.627  0.00  0.00    +0.000 OA
ATOM    118  N   MET A   3      23.675  44.395   1.910  0.00  0.00    +0.000 N 
ATOM    119  CA  MET A   3      24.330  43.253   2.559  0.00  0.00    +0.000 C 
ATOM    120  CB  MET A   3      25.413  42.856   1.556  0.00  0.00    +0.000 C 
ATOM    121  CG  MET A   3      25.701  44.121   0.799  0.00  0.00    +0.000 C 
ATOM    122  CD  MET A   3      24.423  44.892   0.744  0.00  0.00    +0.000 C 
BRANCH 119 123
ATOM    123  C   MET A   3      24.947  43.689   3.883  0.00  0.00    +0.000 C 
ATOM    124  N   ASP A   4      25.032  42.794   4.865  0.00  0.00    +0.000 N 
ATOM    125  H   ASP A   4      24.633  41.841   4.747  0.00  0.00    +0.000 HD
ATOM    126  O   MET A   3      25.308  44.857   4.017  0.00  0.00    +0.000 OA
BRANCH 124 127
ATOM    127  CA  ASP A   4      25.697  43.174   6.116  0.00  0.00    +0.000 C 
BRANCH 127 128
ATOM    128  C   ASP A   4      27.215  43.203   5.942  0.00  0.00    +0.000 C 
ATOM    129  O   ASP A   4      27.750  42.707   4.941  0.00  0.00    +0.000 OA
ENDBRANCH 127 128
BRANCH 127 130
ATOM    130  CB  ASP A   4      25.239  42.342   7.339  0.00  0.00    +0.000 C 
BRANCH 130 131
ATOM    131  CG  ASP A   4      25.551  40.855   7.216  0.00  0.00    +0.000 C 
ATOM    132  OD2 ASP A   4      24.831  40.043   7.851  0.00  0.00    +0.000 OA
ATOM    133  OD1 ASP A   4      26.505  40.487   6.512  0.00  0.00    +0.000 OA
ENDBRANCH 130 131
ENDBRANCH 127 130
ENDBRANCH 124 127
ENDBRANCH 119 123
ENDBRANCH 115 116
ENDBRANCH 112 115
ENDBRANCH 110 111
BRANCH 110 134
ATOM    134  N   UNK A   6      19.319  49.961   3.085  0.00  0.00    +0.000 NA
ATOM    135  H   UNK A   1      19.036  50.245   2.125  0.00  0.00    +0.000 HD
ENDBRANCH 110 134
ENDBRANCH 109 110
ENDBRANCH 106 109
ENDBRANCH  99 104
BRANCH 101 136
ATOM    136  C   UNK A   6      12.191  46.006  -0.394  0.00  0.00    +0.000 C 
BRANCH 136 137
ATOM    137  C   UNK A   6      11.959  45.342   0.953  0.00  0.00    +0.000 C 
BRANCH 137 138
ATOM    138  C   UNK A   6      10.493  45.318   1.375  0.00  0.00    +0.000 C 
BRANCH 138 139
ATOM    139  C   UNK A   6      10.338  44.540   2.677  0.00  0.00    +0.000 C 
ATOM    140  O   UNK A   6      11.041  44.796   3.665  0.00  0.00    +0.000 OA
ATOM    141  N   PHE A   2       9.407  43.597   2.662  0.00  0.00    +0.000 N 
ATOM    142  H   PHE A   2       8.779  43.527   1.836  0.00  0.00    +0.000 HD
BRANCH 141 143
ATOM    143  CA  PHE A   2       9.229  42.652   3.761  0.00  0.00    +0.000 C 
BRANCH 143 144
ATOM    144  C   PHE A   2       9.813  41.301   3.341  0.00  0.00    +0.000 C 
ATOM    145  N   MET A   3      10.799  40.795   4.079  0.00  0.00    +0.000 N 
ATOM    146  H   MET A   3      11.152  41.319   4.905  0.00  0.00    +0.000 HD
ATOM    147  O   PHE A   2       9.389  40.732   2.344  0.00  0.00    +0.000 OA
BRANCH 145 148
ATOM    148  CA  MET A   3      11.385  39.505   3.729  0.00  0.00    +0.000 C 
BRANCH 148 149
ATOM    149  C   MET A   3      11.139  38.405   4.758  0.00  0.00    +0.000 C 
ATOM    150  O   MET A   3      11.081  38.656   5.969  0.00  0.00    +0.000 OA
ENDBRANCH 148 149
BRANCH 148 151
ATOM    151  CB  MET A   3      12.878  39.618   3.450  0.00  0.00    +0.000 C 
BRANCH 151 152
ATOM    152  CG  MET A   3      13.217  40.251   2.121  0.00  0.00    +0.000 C 
BRANCH 152 153
ATOM    153  SD  MET A   3      14.944  39.978   1.691  0.00  0.00    +0.000 S 
ATOM    154  CE  MET A   3      14.941  38.225   1.369  0.00  0.00    +0.000 C 
ENDBRANCH 152 153
ENDBRANCH 151 152
ENDBRANCH 148 151
ENDBRANCH 145 148
ENDBRANCH 143 144
BRANCH 143 155
ATOM    155  CB  PHE A   2       7.740  42.499   4.081  0.00  0.00    +0.000 C 
BRANCH 155 156
ATOM    156  CG  PHE A   2       7.465  41.613   5.260  0.00  0.00    +0.000 A 
ATOM    157  CD2 PHE A   2       7.358  42.147   6.525  0.00  0.00    +0.000 A 
ATOM    158  CE2 PHE A   2       7.094  41.340   7.615  0.00  0.00    +0.000 A 
ATOM    159  CZ  PHE A   2       6.956  39.969   7.434  0.00  0.00    +0.000 A 
ATOM    160  CE1 PHE A   2       7.076  39.431   6.178  0.00  0.00    +0.000 A 
ATOM    161  CD1 PHE A   2       7.326  40.246   5.098  0.00  0.00    +0.000 A 
ENDBRANCH 155 156
ENDBRANCH 143 155
ENDBRANCH 141 143
ENDBRANCH 138 139
BRANCH 138 162
ATOM    162  N   UNK A   6       9.980  46.677   1.481  0.00  0.00    +0.000 NA
ATOM    163  H   UNK A   1      10.493  47.368   2.064  0.00  0.00    +0.000 HD
ENDBRANCH 138 162
ENDBRANCH 137 138
ENDBRANCH 136 137
ENDBRANCH 101 136
ENDBRANCH  95  99
ENDBRANCH  93  94
ENDBRANCH   1  93
TORSDOF 57
REMARK  Name = ../refined-set-2016/4aq6/4aq6_pocket.pdb
REMARK  161 active torsions:
REMARK  status: ('A' for Active; 'I' for Inactive)
REMARK    1  A    between atoms: _1  and  _3
REMARK    2  A    between atoms: _3  and  _4
REMARK    3  A    between atoms: _3  and  _6
REMARK    4  A    between atoms: _6  and  _7
REMARK    5  A    between atoms: _13  and  _14
REMARK    6  A    between atoms: _19  and  _21
REMARK    7  A    between atoms: _21  and  _22
REMARK    8  A    between atoms: _21  and  _24
REMARK    9  A    between atoms: _24  and  _25
REMARK   10  A    between atoms: _29  and  _30
REMARK   11  A    between atoms: _35  and  _37
REMARK   12  A    between atoms: _37  and  _38
REMARK   13  A    between atoms: _37  and  _40
REMARK   14  A    between atoms: _40  and  _41
REMARK   15  A    between atoms: _43  and  _45
REMARK   16  A    between atoms: _45  and  _46
REMARK   17  A    between atoms: _45  and  _48
REMARK   18  A    between atoms: _48  and  _49
REMARK   19  A    between atoms: _52  and  _54
REMARK   20  A    between atoms: _54  and  _55
REMARK   21  A    between atoms: _54  and  _57
REMARK   22  A    between atoms: _57  and  _58
REMARK   23  A    between atoms: _64  and  _66
REMARK   24  A    between atoms: _66  and  _67
REMARK   25  A    between atoms: _66  and  _69
REMARK   26  A    between atoms: _72  and  _74
REMARK   27  A    between atoms: _74  and  _75
REMARK   28  A    between atoms: _74  and  _77
REMARK   29  A    between atoms: _77  and  _78
REMARK   30  A    between atoms: _81  and  _83
REMARK   31  A    between atoms: _83  and  _84
REMARK   32  A    between atoms: _83  and  _86
REMARK   33  A    between atoms: _86  and  _87
REMARK   34  A    between atoms: _93  and  _95
REMARK   35  A    between atoms: _95  and  _96
REMARK   36  A    between atoms: _95  and  _98
REMARK   37  A    between atoms: _98  and  _99
REMARK   38  A    between atoms: _99  and  _100
REMARK   39  A    between atoms: _100  and  _101
REMARK   40  A    between atoms: _110  and  _112
REMARK   41  A    between atoms: _112  and  _113
REMARK   42  A    between atoms: _112  and  _115
REMARK   43  A    between atoms: _115  and  _116
REMARK   44  A    between atoms: _116  and  _117
REMARK   45  A    between atoms: _117  and  _118
REMARK   46  A    between atoms: _128  and  _129
REMARK   47  A    between atoms: _135  and  _136
REMARK   48  A    between atoms: _141  and  _143
REMARK   49  A    between atoms: _143  and  _144
REMARK   50  A    between atoms: _143  and  _146
REMARK   51  A    between atoms: _146  and  _147
REMARK   52  A    between atoms: _157  and  _159
REMARK   53  A    between atoms: _159  and  _160
REMARK   54  A    between atoms: _159  and  _162
REMARK   55  A    between atoms: _162  and  _163
REMARK   56  A    between atoms: _169  and  _171
REMARK   57  A    between atoms: _171  and  _172
REMARK   58  A    between atoms: _171  and  _174
REMARK   59  A    between atoms: _174  and  _175
REMARK   60  A    between atoms: _176  and  FE_434
REMARK   61  A    between atoms: _180  and  _182
REMARK   62  A    between atoms: _182  and  _183
REMARK   63  A    between atoms: _182  and  _185
REMARK   64  A    between atoms: _185  and  _186
REMARK   65  A    between atoms: _186  and  _187
REMARK   66  A    between atoms: _187  and  _188
REMARK   67  A    between atoms: _197  and  _199
REMARK   68  A    between atoms: _199  and  _200
REMARK   69  A    between atoms: _199  and  _202
REMARK   70  A    between atoms: _202  and  _203
REMARK   71  A    between atoms: _208  and  _210
REMARK   72  A    between atoms: _210  and  _211
REMARK   73  A    between atoms: _210  and  _213
REMARK   74  A    between atoms: _213  and  _214
REMARK   75  A    between atoms: _214  and  _215
REMARK   76  A    between atoms: _218  and  _220
REMARK   77  A    between atoms: _220  and  _221
REMARK   78  A    between atoms: _220  and  _223
REMARK   79  A    between atoms: _223  and  _224
REMARK   80  A    between atoms: _230  and  _232
REMARK   81  A    between atoms: _232  and  _233
REMARK   82  A    between atoms: _232  and  _235
REMARK   83  A    between atoms: _235  and  _236
REMARK   84  A    between atoms: _236  and  _237
REMARK   85  A    between atoms: _239  and  _241
REMARK   86  A    between atoms: _241  and  _242
REMARK   87  A    between atoms: _241  and  _244
REMARK   88  A    between atoms: _244  and  _245
REMARK   89  A    between atoms: _250  and  _251
REMARK   90  A    between atoms: _253  and  _255
REMARK   91  A    between atoms: _255  and  _256
REMARK   92  A    between atoms: _255  and  _258
REMARK   93  A    between atoms: _258  and  _259
REMARK   94  A    between atoms: _262  and  _264
REMARK   95  A    between atoms: _264  and  _265
REMARK   96  A    between atoms: _268  and  _270
REMARK   97  A    between atoms: _270  and  _271
REMARK   98  A    between atoms: _270  and  _273
REMARK   99  A    between atoms: _273  and  _274
REMARK  100  A    between atoms: _274  and  _275
REMARK  101  A    between atoms: _275  and  _276
REMARK  102  A    between atoms: _276  and  _277
REMARK  103  A    between atoms: _281  and  _283
REMARK  104  A    between atoms: _283  and  _284
REMARK  105  A    between atoms: _283  and  _286
REMARK  106  A    between atoms: _286  and  _287
REMARK  107  A    between atoms: _293  and  _295
REMARK  108  A    between atoms: _295  and  _296
REMARK  109  A    between atoms: _295  and  _298
REMARK  110  A    between atoms: _298  and  _299
REMARK  111  A    between atoms: _301  and  _303
REMARK  112  A    between atoms: _303  and  _304
REMARK  113  A    between atoms: _303  and  _306
REMARK  114  A    between atoms: _306  and  _307
REMARK  115  A    between atoms: _312  and  _314
REMARK  116  A    between atoms: _314  and  _315
REMARK  117  A    between atoms: _314  and  _317
REMARK  118  A    between atoms: _317  and  _318
REMARK  119  A    between atoms: _322  and  FE_434
REMARK  120  A    between atoms: _323  and  _325
REMARK  121  A    between atoms: _325  and  _326
REMARK  122  A    between atoms: _329  and  _330
REMARK  123  A    between atoms: _335  and  _337
REMARK  124  A    between atoms: _337  and  _338
REMARK  125  A    between atoms: _337  and  _340
REMARK  126  A    between atoms: _340  and  _341
REMARK  127  A    between atoms: _344  and  _346
REMARK  128  A    between atoms: _346  and  _347
REMARK  129  A    between atoms: _346  and  _349
REMARK  130  A    between atoms: _349  and  _350
REMARK  131  A    between atoms: _356  and  _358
REMARK  132  A    between atoms: _358  and  _359
REMARK  133  A    between atoms: _358  and  _361
REMARK  134  A    between atoms: _361  and  _362
REMARK  135  A    between atoms: _362  and  _363
REMARK  136  A    between atoms: _365  and  _367
REMARK  137  A    between atoms: _367  and  _368
REMARK  138  A    between atoms: _367  and  _370
REMARK  139  A    between atoms: _370  and  _371
REMARK  140  A    between atoms: _371  and  _372
REMARK  141  A    between atoms: _375  and  _377
REMARK  142  A    between atoms: _377  and  _378
REMARK  143  A    between atoms: _377  and  _380
REMARK  144  A    between atoms: _380  and  _381
REMARK  145  A    between atoms: _386  and  _387
REMARK  146  A    between atoms: _389  and  _391
REMARK  147  A    between atoms: _391  and  _392
REMARK  148  A    between atoms: _391  and  _394
REMARK  149  A    between atoms: _394  and  _395
REMARK  150  A    between atoms: _405  and  _407
REMARK  151  A    between atoms: _407  and  _408
REMARK  152  A    between atoms: _407  and  _410
REMARK  153  A    between atoms: _410  and  _411
REMARK  154  A    between atoms: _414  and  _416
REMARK  155  A    between atoms: _416  and  _417
REMARK  156  A    between atoms: _416  and  _419
REMARK  157  A    between atoms: _419  and  _420
REMARK  158  A    between atoms: _422  and  _424
REMARK  159  A    between atoms: _424  and  _425
REMARK  160  A    between atoms: _424  and  _427
REMARK  161  A    between atoms: _427  and  _428
REMARK                            x       y       z     vdW  Elec       q    Type
REMARK                         _______ _______ _______ _____ _____    ______ ____
ROOT
ATOM      1  CA  ASP A   2      22.801  35.363   0.847  0.00  0.00    +0.160 C 
ENDROOT
BRANCH   1   2
ATOM      2  C   ASP A   2      23.306  36.695   1.422  0.00  0.00    +0.241 C 
ATOM      3  N   ALA A   3      22.393  37.610   1.751  0.00  0.00    -0.297 N 
ATOM      4  H   ALA A   3      21.386  37.350   1.731  0.00  0.00    +0.150 HD
ATOM      5  O   ASP A   2      24.516  36.884   1.557  0.00  0.00    -0.273 OA
BRANCH   3   6
ATOM      6  CA  ALA A   3      22.771  38.974   2.141  0.00  0.00    +0.149 C 
ATOM      7  CB  ALA A   3      21.725  39.961   1.655  0.00  0.00    +0.031 C 
BRANCH   6   8
ATOM      8  C   ALA A   3      22.969  39.151   3.640  0.00  0.00    +0.241 C 
ATOM      9  N   LYS A   4      22.608  38.138   4.412  0.00  0.00    -0.298 N 
ATOM     10  H   LYS A   4      22.321  37.234   3.985  0.00  0.00    +0.150 HD
ATOM     11  O   ALA A   3      23.427  40.200   4.096  0.00  0.00    -0.273 OA
BRANCH   9  12
ATOM     12  CA  LYS A   4      22.613  38.292   5.865  0.00  0.00    +0.137 C 
BRANCH  12  13
ATOM     13  C   LYS A   4      23.260  37.107   6.564  0.00  0.00    +0.227 C 
ATOM     14  O   LYS A   4      22.675  36.028   6.651  0.00  0.00    -0.286 OA
ENDBRANCH  12  13
BRANCH  12  15
ATOM     15  CB  LYS A   4      21.191  38.533   6.377  0.00  0.00    +0.028 C 
BRANCH  15  16
ATOM     16  CG  LYS A   4      20.604  39.857   5.910  0.00  0.00    -0.000 C 
BRANCH  16  17
ATOM     17  CD  LYS A   4      21.309  41.044   6.569  0.00  0.00    -0.024 C 
BRANCH  17  18
ATOM     18  CE  LYS A   4      21.221  42.309   5.714  0.00  0.00    -0.086 C 
BRANCH  18  19
ATOM     19  NZ  LYS A   4      19.822  42.779   5.587  0.00  0.00    +0.380 N 
ATOM     20  HZ1 LYS A   4      19.442  42.991   6.531  0.00  0.00    -0.089 HD
ATOM     21  HZ2 LYS A   4      19.247  42.037   5.139  0.00  0.00    -0.089 HD
ATOM     22  HZ3 LYS A   4      19.798  43.638   5.001  0.00  0.00    -0.089 HD
ENDBRANCH  18  19
ENDBRANCH  17  18
ENDBRANCH  16  17
ENDBRANCH  15  16
ENDBRANCH  12  15
ENDBRANCH   9  12
ENDBRANCH   6   8
ENDBRANCH   3   6
ENDBRANCH   1   2
BRANCH   1  25
ATOM     23  C   TYR A   1      21.092  34.744   2.551  0.00  0.00    +0.239 C 
ATOM     24  O   TYR A   1      21.794  35.051   3.513  0.00  0.00    -0.274 OA
ATOM     25  N   ASP A   2      21.461  34.927   1.284  0.00  0.00    -0.297 N 
ATOM     26  H   ASP A   2      20.750  34.749   0.546  0.00  0.00    +0.150 HD
BRANCH  23  27
ATOM     27  CA  TYR A   1      19.705  34.117   2.763  0.00  0.00    +0.149 C 
BRANCH  27  28
ATOM     28  N   TYR A   1      19.758  33.142   3.847  0.00  0.00    -0.238 NA
ATOM     29  H   TYR A   1      19.622  33.478   4.822  0.00  0.00    +0.142 HD
ENDBRANCH  27  28
BRANCH  27  30
ATOM     30  CB  TYR A   1      18.644  35.193   3.070  0.00  0.00    +0.053 C 
BRANCH  30  31
ATOM     31  CG  TYR A   1      18.569  36.307   2.040  0.00  0.00    -0.020 A 
ATOM     32  CD2 TYR A   1      18.693  37.643   2.415  0.00  0.00    -0.001 A 
ATOM     33  CE2 TYR A   1      18.634  38.660   1.469  0.00  0.00    +0.036 A 
ATOM     34  CZ  TYR A   1      18.457  38.345   0.138  0.00  0.00    +0.134 A 
ATOM     35  CE1 TYR A   1      18.321  37.032  -0.261  0.00  0.00    +0.036 A 
ATOM     36  CD1 TYR A   1      18.381  36.020   0.692  0.00  0.00    -0.001 A 
BRANCH  34  37
ATOM     37  OH  TYR A   1      18.395  39.340  -0.800  0.00  0.00    -0.506 OA
ATOM     38  HH  TYR A   1      17.635  39.940  -0.593  0.00  0.00    +0.292 HD
ENDBRANCH  34  37
ENDBRANCH  30  31
ENDBRANCH  27  30
ENDBRANCH  23  27
ENDBRANCH   1  25
BRANCH   1  39
ATOM     39  CB  ASP A   2      22.821  35.441  -0.688  0.00  0.00    +0.143 C 
BRANCH  39  40
ATOM     40  CG  ASP A   2      24.223  35.378  -1.278  0.00  0.00    +0.367 C 
ATOM     41  OD2 ASP A   2      25.134  34.788  -0.652  0.00  0.00    -0.246 OA
ATOM     42  OD1 ASP A   2      24.407  35.907  -2.398  0.00  0.00    -0.246 OA
ENDBRANCH  39  40
ENDBRANCH   1  39
TORSDOF 18
REMARK  Name = ../refined-set-2016/4aq6/4aq6_pocket.pdb
REMARK  161 active torsions:
REMARK  status: ('A' for Active; 'I' for Inactive)
REMARK    1  A    between atoms: _1  and  _3
REMARK    2  A    between atoms: _3  and  _4
REMARK    3  A    between atoms: _3  and  _6
REMARK    4  A    between atoms: _6  and  _7
REMARK    5  A    between atoms: _13  and  _14
REMARK    6  A    between atoms: _19  and  _21
REMARK    7  A    between atoms: _21  and  _22
REMARK    8  A    between atoms: _21  and  _24
REMARK    9  A    between atoms: _24  and  _25
REMARK   10  A    between atoms: _29  and  _30
REMARK   11  A    between atoms: _35  and  _37
REMARK   12  A    between atoms: _37  and  _38
REMARK   13  A    between atoms: _37  and  _40
REMARK   14  A    between atoms: _40  and  _41
REMARK   15  A    between atoms: _43  and  _45
REMARK   16  A    between atoms: _45  and  _46
REMARK   17  A    between atoms: _45  and  _48
REMARK   18  A    between atoms: _48  and  _49
REMARK   19  A    between atoms: _52  and  _54
REMARK   20  A    between atoms: _54  and  _55
REMARK   21  A    between atoms: _54  and  _57
REMARK   22  A    between atoms: _57  and  _58
REMARK   23  A    between atoms: _64  and  _66
REMARK   24  A    between atoms: _66  and  _67
REMARK   25  A    between atoms: _66  and  _69
REMARK   26  A    between atoms: _72  and  _74
REMARK   27  A    between atoms: _74  and  _75
REMARK   28  A    between atoms: _74  and  _77
REMARK   29  A    between atoms: _77  and  _78
REMARK   30  A    between atoms: _81  and  _83
REMARK   31  A    between atoms: _83  and  _84
REMARK   32  A    between atoms: _83  and  _86
REMARK   33  A    between atoms: _86  and  _87
REMARK   34  A    between atoms: _93  and  _95
REMARK   35  A    between atoms: _95  and  _96
REMARK   36  A    between atoms: _95  and  _98
REMARK   37  A    between atoms: _98  and  _99
REMARK   38  A    between atoms: _99  and  _100
REMARK   39  A    between atoms: _100  and  _101
REMARK   40  A    between atoms: _110  and  _112
REMARK   41  A    between atoms: _112  and  _113
REMARK   42  A    between atoms: _112  and  _115
REMARK   43  A    between atoms: _115  and  _116
REMARK   44  A    between atoms: _116  and  _117
REMARK   45  A    between atoms: _117  and  _118
REMARK   46  A    between atoms: _128  and  _129
REMARK   47  A    between atoms: _135  and  _136
REMARK   48  A    between atoms: _141  and  _143
REMARK   49  A    between atoms: _143  and  _144
REMARK   50  A    between atoms: _143  and  _146
REMARK   51  A    between atoms: _146  and  _147
REMARK   52  A    between atoms: _157  and  _159
REMARK   53  A    between atoms: _159  and  _160
REMARK   54  A    between atoms: _159  and  _162
REMARK   55  A    between atoms: _162  and  _163
REMARK   56  A    between atoms: _169  and  _171
REMARK   57  A    between atoms: _171  and  _172
REMARK   58  A    between atoms: _171  and  _174
REMARK   59  A    between atoms: _174  and  _175
REMARK   60  A    between atoms: _176  and  FE_434
REMARK   61  A    between atoms: _180  and  _182
REMARK   62  A    between atoms: _182  and  _183
REMARK   63  A    between atoms: _182  and  _185
REMARK   64  A    between atoms: _185  and  _186
REMARK   65  A    between atoms: _186  and  _187
REMARK   66  A    between atoms: _187  and  _188
REMARK   67  A    between atoms: _197  and  _199
REMARK   68  A    between atoms: _199  and  _200
REMARK   69  A    between atoms: _199  and  _202
REMARK   70  A    between atoms: _202  and  _203
REMARK   71  A    between atoms: _208  and  _210
REMARK   72  A    between atoms: _210  and  _211
REMARK   73  A    between atoms: _210  and  _213
REMARK   74  A    between atoms: _213  and  _214
REMARK   75  A    between atoms: _214  and  _215
REMARK   76  A    between atoms: _218  and  _220
REMARK   77  A    between atoms: _220  and  _221
REMARK   78  A    between atoms: _220  and  _223
REMARK   79  A    between atoms: _223  and  _224
REMARK   80  A    between atoms: _230  and  _232
REMARK   81  A    between atoms: _232  and  _233
REMARK   82  A    between atoms: _232  and  _235
REMARK   83  A    between atoms: _235  and  _236
REMARK   84  A    between atoms: _236  and  _237
REMARK   85  A    between atoms: _239  and  _241
REMARK   86  A    between atoms: _241  and  _242
REMARK   87  A    between atoms: _241  and  _244
REMARK   88  A    between atoms: _244  and  _245
REMARK   89  A    between atoms: _250  and  _251
REMARK   90  A    between atoms: _253  and  _255
REMARK   91  A    between atoms: _255  and  _256
REMARK   92  A    between atoms: _255  and  _258
REMARK   93  A    between atoms: _258  and  _259
REMARK   94  A    between atoms: _262  and  _264
REMARK   95  A    between atoms: _264  and  _265
REMARK   96  A    between atoms: _268  and  _270
REMARK   97  A    between atoms: _270  and  _271
REMARK   98  A    between atoms: _270  and  _273
REMARK   99  A    between atoms: _273  and  _274
REMARK  100  A    between atoms: _274  and  _275
REMARK  101  A    between atoms: _275  and  _276
REMARK  102  A    between atoms: _276  and  _277
REMARK  103  A    between atoms: _281  and  _283
REMARK  104  A    between atoms: _283  and  _284
REMARK  105  A    between atoms: _283  and  _286
REMARK  106  A    between atoms: _286  and  _287
REMARK  107  A    between atoms: _293  and  _295
REMARK  108  A    between atoms: _295  and  _296
REMARK  109  A    between atoms: _295  and  _298
REMARK  110  A    between atoms: _298  and  _299
REMARK  111  A    between atoms: _301  and  _303
REMARK  112  A    between atoms: _303  and  _304
REMARK  113  A    between atoms: _303  and  _306
REMARK  114  A    between atoms: _306  and  _307
REMARK  115  A    between atoms: _312  and  _314
REMARK  116  A    between atoms: _314  and  _315
REMARK  117  A    between atoms: _314  and  _317
REMARK  118  A    between atoms: _317  and  _318
REMARK  119  A    between atoms: _322  and  FE_434
REMARK  120  A    between atoms: _323  and  _325
REMARK  121  A    between atoms: _325  and  _326
REMARK  122  A    between atoms: _329  and  _330
REMARK  123  A    between atoms: _335  and  _337
REMARK  124  A    between atoms: _337  and  _338
REMARK  125  A    between atoms: _337  and  _340
REMARK  126  A    between atoms: _340  and  _341
REMARK  127  A    between atoms: _344  and  _346
REMARK  128  A    between atoms: _346  and  _347
REMARK  129  A    between atoms: _346  and  _349
REMARK  130  A    between atoms: _349  and  _350
REMARK  131  A    between atoms: _356  and  _358
REMARK  132  A    between atoms: _358  and  _359
REMARK  133  A    between atoms: _358  and  _361
REMARK  134  A    between atoms: _361  and  _362
REMARK  135  A    between atoms: _362  and  _363
REMARK  136  A    between atoms: _365  and  _367
REMARK  137  A    between atoms: _367  and  _368
REMARK  138  A    between atoms: _367  and  _370
REMARK  139  A    between atoms: _370  and  _371
REMARK  140  A    between atoms: _371  and  _372
REMARK  141  A    between atoms: _375  and  _377
REMARK  142  A    between atoms: _377  and  _378
REMARK  143  A    between atoms: _377  and  _380
REMARK  144  A    between atoms: _380  and  _381
REMARK  145  A    between atoms: _386  and  _387
REMARK  146  A    between atoms: _389  and  _391
REMARK  147  A    between atoms: _391  and  _392
REMARK  148  A    between atoms: _391  and  _394
REMARK  149  A    between atoms: _394  and  _395
REMARK  150  A    between atoms: _405  and  _407
REMARK  151  A    between atoms: _407  and  _408
REMARK  152  A    between atoms: _407  and  _410
REMARK  153  A    between atoms: _410  and  _411
REMARK  154  A    between atoms: _414  and  _416
REMARK  155  A    between atoms: _416  and  _417
REMARK  156  A    between atoms: _416  and  _419
REMARK  157  A    between atoms: _419  and  _420
REMARK  158  A    between atoms: _422  and  _424
REMARK  159  A    between atoms: _424  and  _425
REMARK  160  A    between atoms: _424  and  _427
REMARK  161  A    between atoms: _427  and  _428
REMARK                            x       y       z     vdW  Elec       q    Type
REMARK                         _______ _______ _______ _____ _____    ______ ____
ROOT
ATOM      1  CB  PHE A   1      18.103  36.675   8.463  0.00  0.00    +0.051 C 
ENDROOT
BRANCH   1   2
ATOM      2  CG  PHE A   1      16.880  36.752   7.572  0.00  0.00    -0.020 A 
ATOM      3  CD2 PHE A   1      15.637  37.081   8.097  0.00  0.00    -0.004 A 
ATOM      4  CE2 PHE A   1      14.514  37.156   7.275  0.00  0.00    -0.000 A 
ATOM      5  CZ  PHE A   1      14.641  36.916   5.913  0.00  0.00    -0.000 A 
ATOM      6  CE1 PHE A   1      15.879  36.599   5.375  0.00  0.00    -0.000 A 
ATOM      7  CD1 PHE A   1      16.986  36.517   6.206  0.00  0.00    -0.004 A 
ENDBRANCH   1   2
BRANCH   1   8
ATOM      8  CA  PHE A   1      17.862  35.978   9.808  0.00  0.00    +0.137 C 
BRANCH   8   9
ATOM      9  N   PHE A   1      19.022  36.171  10.683  0.00  0.00    -0.239 NA
ATOM     10  H   PHE A   1      19.959  35.877  10.341  0.00  0.00    +0.142 HD
ENDBRANCH   8   9
BRANCH   8  11
ATOM     11  C   PHE A   1      17.617  34.484   9.609  0.00  0.00    +0.224 C 
ATOM     12  O   PHE A   1      18.278  33.844   8.795  0.00  0.00    -0.287 OA
ENDBRANCH   8  11
ENDBRANCH   1   8
TORSDOF 4
REMARK  Name = ../refined-set-2016/4aq6/4aq6_pocket.pdb
REMARK  161 active torsions:
REMARK  status: ('A' for Active; 'I' for Inactive)
REMARK    1  A    between atoms: _1  and  _3
REMARK    2  A    between atoms: _3  and  _4
REMARK    3  A    between atoms: _3  and  _6
REMARK    4  A    between atoms: _6  and  _7
REMARK    5  A    between atoms: _13  and  _14
REMARK    6  A    between atoms: _19  and  _21
REMARK    7  A    between atoms: _21  and  _22
REMARK    8  A    between atoms: _21  and  _24
REMARK    9  A    between atoms: _24  and  _25
REMARK   10  A    between atoms: _29  and  _30
REMARK   11  A    between atoms: _35  and  _37
REMARK   12  A    between atoms: _37  and  _38
REMARK   13  A    between atoms: _37  and  _40
REMARK   14  A    between atoms: _40  and  _41
REMARK   15  A    between atoms: _43  and  _45
REMARK   16  A    between atoms: _45  and  _46
REMARK   17  A    between atoms: _45  and  _48
REMARK   18  A    between atoms: _48  and  _49
REMARK   19  A    between atoms: _52  and  _54
REMARK   20  A    between atoms: _54  and  _55
REMARK   21  A    between atoms: _54  and  _57
REMARK   22  A    between atoms: _57  and  _58
REMARK   23  A    between atoms: _64  and  _66
REMARK   24  A    between atoms: _66  and  _67
REMARK   25  A    between atoms: _66  and  _69
REMARK   26  A    between atoms: _72  and  _74
REMARK   27  A    between atoms: _74  and  _75
REMARK   28  A    between atoms: _74  and  _77
REMARK   29  A    between atoms: _77  and  _78
REMARK   30  A    between atoms: _81  and  _83
REMARK   31  A    between atoms: _83  and  _84
REMARK   32  A    between atoms: _83  and  _86
REMARK   33  A    between atoms: _86  and  _87
REMARK   34  A    between atoms: _93  and  _95
REMARK   35  A    between atoms: _95  and  _96
REMARK   36  A    between atoms: _95  and  _98
REMARK   37  A    between atoms: _98  and  _99
REMARK   38  A    between atoms: _99  and  _100
REMARK   39  A    between atoms: _100  and  _101
REMARK   40  A    between atoms: _110  and  _112
REMARK   41  A    between atoms: _112  and  _113
REMARK   42  A    between atoms: _112  and  _115
REMARK   43  A    between atoms: _115  and  _116
REMARK   44  A    between atoms: _116  and  _117
REMARK   45  A    between atoms: _117  and  _118
REMARK   46  A    between atoms: _128  and  _129
REMARK   47  A    between atoms: _135  and  _136
REMARK   48  A    between atoms: _141  and  _143
REMARK   49  A    between atoms: _143  and  _144
REMARK   50  A    between atoms: _143  and  _146
REMARK   51  A    between atoms: _146  and  _147
REMARK   52  A    between atoms: _157  and  _159
REMARK   53  A    between atoms: _159  and  _160
REMARK   54  A    between atoms: _159  and  _162
REMARK   55  A    between atoms: _162  and  _163
REMARK   56  A    between atoms: _169  and  _171
REMARK   57  A    between atoms: _171  and  _172
REMARK   58  A    between atoms: _171  and  _174
REMARK   59  A    between atoms: _174  and  _175
REMARK   60  A    between atoms: _176  and  FE_434
REMARK   61  A    between atoms: _180  and  _182
REMARK   62  A    between atoms: _182  and  _183
REMARK   63  A    between atoms: _182  and  _185
REMARK   64  A    between atoms: _185  and  _186
REMARK   65  A    between atoms: _186  and  _187
REMARK   66  A    between atoms: _187  and  _188
REMARK   67  A    between atoms: _197  and  _199
REMARK   68  A    between atoms: _199  and  _200
REMARK   69  A    between atoms: _199  and  _202
REMARK   70  A    between atoms: _202  and  _203
REMARK   71  A    between atoms: _208  and  _210
REMARK   72  A    between atoms: _210  and  _211
REMARK   73  A    between atoms: _210  and  _213
REMARK   74  A    between atoms: _213  and  _214
REMARK   75  A    between atoms: _214  and  _215
REMARK   76  A    between atoms: _218  and  _220
REMARK   77  A    between atoms: _220  and  _221
REMARK   78  A    between atoms: _220  and  _223
REMARK   79  A    between atoms: _223  and  _224
REMARK   80  A    between atoms: _230  and  _232
REMARK   81  A    between atoms: _232  and  _233
REMARK   82  A    between atoms: _232  and  _235
REMARK   83  A    between atoms: _235  and  _236
REMARK   84  A    between atoms: _236  and  _237
REMARK   85  A    between atoms: _239  and  _241
REMARK   86  A    between atoms: _241  and  _242
REMARK   87  A    between atoms: _241  and  _244
REMARK   88  A    between atoms: _244  and  _245
REMARK   89  A    between atoms: _250  and  _251
REMARK   90  A    between atoms: _253  and  _255
REMARK   91  A    between atoms: _255  and  _256
REMARK   92  A    between atoms: _255  and  _258
REMARK   93  A    between atoms: _258  and  _259
REMARK   94  A    between atoms: _262  and  _264
REMARK   95  A    between atoms: _264  and  _265
REMARK   96  A    between atoms: _268  and  _270
REMARK   97  A    between atoms: _270  and  _271
REMARK   98  A    between atoms: _270  and  _273
REMARK   99  A    between atoms: _273  and  _274
REMARK  100  A    between atoms: _274  and  _275
REMARK  101  A    between atoms: _275  and  _276
REMARK  102  A    between atoms: _276  and  _277
REMARK  103  A    between atoms: _281  and  _283
REMARK  104  A    between atoms: _283  and  _284
REMARK  105  A    between atoms: _283  and  _286
REMARK  106  A    between atoms: _286  and  _287
REMARK  107  A    between atoms: _293  and  _295
REMARK  108  A    between atoms: _295  and  _296
REMARK  109  A    between atoms: _295  and  _298
REMARK  110  A    between atoms: _298  and  _299
REMARK  111  A    between atoms: _301  and  _303
REMARK  112  A    between atoms: _303  and  _304
REMARK  113  A    between atoms: _303  and  _306
REMARK  114  A    between atoms: _306  and  _307
REMARK  115  A    between atoms: _312  and  _314
REMARK  116  A    between atoms: _314  and  _315
REMARK  117  A    between atoms: _314  and  _317
REMARK  118  A    between atoms: _317  and  _318
REMARK  119  A    between atoms: _322  and  FE_434
REMARK  120  A    between atoms: _323  and  _325
REMARK  121  A    between atoms: _325  and  _326
REMARK  122  A    between atoms: _329  and  _330
REMARK  123  A    between atoms: _335  and  _337
REMARK  124  A    between atoms: _337  and  _338
REMARK  125  A    between atoms: _337  and  _340
REMARK  126  A    between atoms: _340  and  _341
REMARK  127  A    between atoms: _344  and  _346
REMARK  128  A    between atoms: _346  and  _347
REMARK  129  A    between atoms: _346  and  _349
REMARK  130  A    between atoms: _349  and  _350
REMARK  131  A    between atoms: _356  and  _358
REMARK  132  A    between atoms: _358  and  _359
REMARK  133  A    between atoms: _358  and  _361
REMARK  134  A    between atoms: _361  and  _362
REMARK  135  A    between atoms: _362  and  _363
REMARK  136  A    between atoms: _365  and  _367
REMARK  137  A    between atoms: _367  and  _368
REMARK  138  A    between atoms: _367  and  _370
REMARK  139  A    between atoms: _370  and  _371
REMARK  140  A    between atoms: _371  and  _372
REMARK  141  A    between atoms: _375  and  _377
REMARK  142  A    between atoms: _377  and  _378
REMARK  143  A    between atoms: _377  and  _380
REMARK  144  A    between atoms: _380  and  _381
REMARK  145  A    between atoms: _386  and  _387
REMARK  146  A    between atoms: _389  and  _391
REMARK  147  A    between atoms: _391  and  _392
REMARK  148  A    between atoms: _391  and  _394
REMARK  149  A    between atoms: _394  and  _395
REMARK  150  A    between atoms: _405  and  _407
REMARK  151  A    between atoms: _407  and  _408
REMARK  152  A    between atoms: _407  and  _410
REMARK  153  A    between atoms: _410  and  _411
REMARK  154  A    between atoms: _414  and  _416
REMARK  155  A    between atoms: _416  and  _417
REMARK  156  A    between atoms: _416  and  _419
REMARK  157  A    between atoms: _419  and  _420
REMARK  158  A    between atoms: _422  and  _424
REMARK  159  A    between atoms: _424  and  _425
REMARK  160  A    between atoms: _424  and  _427
REMARK  161  A    between atoms: _427  and  _428
REMARK                            x       y       z     vdW  Elec       q    Type
REMARK                         _______ _______ _______ _____ _____    ______ ____
ROOT
ATOM      1  CA  SER A   1      12.748  41.838   8.035  0.00  0.00    +0.163 C 
ENDROOT
BRANCH   1   2
ATOM      2  N   SER A   1      12.202  40.489   8.009  0.00  0.00    -0.237 NA
ATOM      3  H   SER A   1      11.876  40.083   7.109  0.00  0.00    +0.142 HD
ENDBRANCH   1   2
BRANCH   1   4
ATOM      4  C   SER A   1      11.797  42.788   7.319  0.00  0.00    +0.227 C 
ATOM      5  O   SER A   1      11.068  42.389   6.410  0.00  0.00    -0.287 OA
ENDBRANCH   1   4
BRANCH   1   6
ATOM      6  CB  SER A   1      14.134  41.877   7.393  0.00  0.00    +0.162 C 
BRANCH   6   7
ATOM      7  OG  SER A   1      14.116  41.362   6.070  0.00  0.00    -0.380 OA
ATOM      8  H   SER A   1      15.029  41.404   5.688  0.00  0.00    +0.211 HD
ENDBRANCH   6   7
ENDBRANCH   1   6
TORSDOF 4
REMARK  Name = ../refined-set-2016/4aq6/4aq6_pocket.pdb
REMARK  161 active torsions:
REMARK  status: ('A' for Active; 'I' for Inactive)
REMARK    1  A    between atoms: _1  and  _3
REMARK    2  A    between atoms: _3  and  _4
REMARK    3  A    between atoms: _3  and  _6
REMARK    4  A    between atoms: _6  and  _7
REMARK    5  A    between atoms: _13  and  _14
REMARK    6  A    between atoms: _19  and  _21
REMARK    7  A    between atoms: _21  and  _22
REMARK    8  A    between atoms: _21  and  _24
REMARK    9  A    between atoms: _24  and  _25
REMARK   10  A    between atoms: _29  and  _30
REMARK   11  A    between atoms: _35  and  _37
REMARK   12  A    between atoms: _37  and  _38
REMARK   13  A    between atoms: _37  and  _40
REMARK   14  A    between atoms: _40  and  _41
REMARK   15  A    between atoms: _43  and  _45
REMARK   16  A    between atoms: _45  and  _46
REMARK   17  A    between atoms: _45  and  _48
REMARK   18  A    between atoms: _48  and  _49
REMARK   19  A    between atoms: _52  and  _54
REMARK   20  A    between atoms: _54  and  _55
REMARK   21  A    between atoms: _54  and  _57
REMARK   22  A    between atoms: _57  and  _58
REMARK   23  A    between atoms: _64  and  _66
REMARK   24  A    between atoms: _66  and  _67
REMARK   25  A    between atoms: _66  and  _69
REMARK   26  A    between atoms: _72  and  _74
REMARK   27  A    between atoms: _74  and  _75
REMARK   28  A    between atoms: _74  and  _77
REMARK   29  A    between atoms: _77  and  _78
REMARK   30  A    between atoms: _81  and  _83
REMARK   31  A    between atoms: _83  and  _84
REMARK   32  A    between atoms: _83  and  _86
REMARK   33  A    between atoms: _86  and  _87
REMARK   34  A    between atoms: _93  and  _95
REMARK   35  A    between atoms: _95  and  _96
REMARK   36  A    between atoms: _95  and  _98
REMARK   37  A    between atoms: _98  and  _99
REMARK   38  A    between atoms: _99  and  _100
REMARK   39  A    between atoms: _100  and  _101
REMARK   40  A    between atoms: _110  and  _112
REMARK   41  A    between atoms: _112  and  _113
REMARK   42  A    between atoms: _112  and  _115
REMARK   43  A    between atoms: _115  and  _116
REMARK   44  A    between atoms: _116  and  _117
REMARK   45  A    between atoms: _117  and  _118
REMARK   46  A    between atoms: _128  and  _129
REMARK   47  A    between atoms: _135  and  _136
REMARK   48  A    between atoms: _141  and  _143
REMARK   49  A    between atoms: _143  and  _144
REMARK   50  A    between atoms: _143  and  _146
REMARK   51  A    between atoms: _146  and  _147
REMARK   52  A    between atoms: _157  and  _159
REMARK   53  A    between atoms: _159  and  _160
REMARK   54  A    between atoms: _159  and  _162
REMARK   55  A    between atoms: _162  and  _163
REMARK   56  A    between atoms: _169  and  _171
REMARK   57  A    between atoms: _171  and  _172
REMARK   58  A    between atoms: _171  and  _174
REMARK   59  A    between atoms: _174  and  _175
REMARK   60  A    between atoms: _176  and  FE_434
REMARK   61  A    between atoms: _180  and  _182
REMARK   62  A    between atoms: _182  and  _183
REMARK   63  A    between atoms: _182  and  _185
REMARK   64  A    between atoms: _185  and  _186
REMARK   65  A    between atoms: _186  and  _187
REMARK   66  A    between atoms: _187  and  _188
REMARK   67  A    between atoms: _197  and  _199
REMARK   68  A    between atoms: _199  and  _200
REMARK   69  A    between atoms: _199  and  _202
REMARK   70  A    between atoms: _202  and  _203
REMARK   71  A    between atoms: _208  and  _210
REMARK   72  A    between atoms: _210  and  _211
REMARK   73  A    between atoms: _210  and  _213
REMARK   74  A    between atoms: _213  and  _214
REMARK   75  A    between atoms: _214  and  _215
REMARK   76  A    between atoms: _218  and  _220
REMARK   77  A    between atoms: _220  and  _221
REMARK   78  A    between atoms: _220  and  _223
REMARK   79  A    between atoms: _223  and  _224
REMARK   80  A    between atoms: _230  and  _232
REMARK   81  A    between atoms: _232  and  _233
REMARK   82  A    between atoms: _232  and  _235
REMARK   83  A    between atoms: _235  and  _236
REMARK   84  A    between atoms: _236  and  _237
REMARK   85  A    between atoms: _239  and  _241
REMARK   86  A    between atoms: _241  and  _242
REMARK   87  A    between atoms: _241  and  _244
REMARK   88  A    between atoms: _244  and  _245
REMARK   89  A    between atoms: _250  and  _251
REMARK   90  A    between atoms: _253  and  _255
REMARK   91  A    between atoms: _255  and  _256
REMARK   92  A    between atoms: _255  and  _258
REMARK   93  A    between atoms: _258  and  _259
REMARK   94  A    between atoms: _262  and  _264
REMARK   95  A    between atoms: _264  and  _265
REMARK   96  A    between atoms: _268  and  _270
REMARK   97  A    between atoms: _270  and  _271
REMARK   98  A    between atoms: _270  and  _273
REMARK   99  A    between atoms: _273  and  _274
REMARK  100  A    between atoms: _274  and  _275
REMARK  101  A    between atoms: _275  and  _276
REMARK  102  A    between atoms: _276  and  _277
REMARK  103  A    between atoms: _281  and  _283
REMARK  104  A    between atoms: _283  and  _284
REMARK  105  A    between atoms: _283  and  _286
REMARK  106  A    between atoms: _286  and  _287
REMARK  107  A    between atoms: _293  and  _295
REMARK  108  A    between atoms: _295  and  _296
REMARK  109  A    between atoms: _295  and  _298
REMARK  110  A    between atoms: _298  and  _299
REMARK  111  A    between atoms: _301  and  _303
REMARK  112  A    between atoms: _303  and  _304
REMARK  113  A    between atoms: _303  and  _306
REMARK  114  A    between atoms: _306  and  _307
REMARK  115  A    between atoms: _312  and  _314
REMARK  116  A    between atoms: _314  and  _315
REMARK  117  A    between atoms: _314  and  _317
REMARK  118  A    between atoms: _317  and  _318
REMARK  119  A    between atoms: _322  and  FE_434
REMARK  120  A    between atoms: _323  and  _325
REMARK  121  A    between atoms: _325  and  _326
REMARK  122  A    between atoms: _329  and  _330
REMARK  123  A    between atoms: _335  and  _337
REMARK  124  A    between atoms: _337  and  _338
REMARK  125  A    between atoms: _337  and  _340
REMARK  126  A    between atoms: _340  and  _341
REMARK  127  A    between atoms: _344  and  _346
REMARK  128  A    between atoms: _346  and  _347
REMARK  129  A    between atoms: _346  and  _349
REMARK  130  A    between atoms: _349  and  _350
REMARK  131  A    between atoms: _356  and  _358
REMARK  132  A    between atoms: _358  and  _359
REMARK  133  A    between atoms: _358  and  _361
REMARK  134  A    between atoms: _361  and  _362
REMARK  135  A    between atoms: _362  and  _363
REMARK  136  A    between atoms: _365  and  _367
REMARK  137  A    between atoms: _367  and  _368
REMARK  138  A    between atoms: _367  and  _370
REMARK  139  A    between atoms: _370  and  _371
REMARK  140  A    between atoms: _371  and  _372
REMARK  141  A    between atoms: _375  and  _377
REMARK  142  A    between atoms: _377  and  _378
REMARK  143  A    between atoms: _377  and  _380
REMARK  144  A    between atoms: _380  and  _381
REMARK  145  A    between atoms: _386  and  _387
REMARK  146  A    between atoms: _389  and  _391
REMARK  147  A    between atoms: _391  and  _392
REMARK  148  A    between atoms: _391  and  _394
REMARK  149  A    between atoms: _394  and  _395
REMARK  150  A    between atoms: _405  and  _407
REMARK  151  A    between atoms: _407  and  _408
REMARK  152  A    between atoms: _407  and  _410
REMARK  153  A    between atoms: _410  and  _411
REMARK  154  A    between atoms: _414  and  _416
REMARK  155  A    between atoms: _416  and  _417
REMARK  156  A    between atoms: _416  and  _419
REMARK  157  A    between atoms: _419  and  _420
REMARK  158  A    between atoms: _422  and  _424
REMARK  159  A    between atoms: _424  and  _425
REMARK  160  A    between atoms: _424  and  _427
REMARK  161  A    between atoms: _427  and  _428
REMARK                            x       y       z     vdW  Elec       q    Type
REMARK                         _______ _______ _______ _____ _____    ______ ____
ROOT
ATOM      1  CB  HIS A   1      14.197  47.441   4.266  0.00  0.00    +0.072 C 
ENDROOT
BRANCH   1   2
ATOM      2  CG  HIS A   1      15.133  46.445   4.884  0.00  0.00    +0.082 A 
ATOM      3  CD2 HIS A   1      15.524  46.266   6.170  0.00  0.00    +0.115 A 
ATOM      4  NE2 HIS A   1      16.378  45.189   6.189  0.00  0.00    -0.221 NA
ATOM      5  CE1 HIS A   1      16.510  44.725   4.960  0.00  0.00    +0.199 A 
ATOM      6  ND1 HIS A   1      15.769  45.466   4.153  0.00  0.00    -0.227 NA
ENDBRANCH   1   2
BRANCH   1   7
ATOM      7  CA  HIS A   1      12.993  47.782   5.142  0.00  0.00    +0.139 C 
BRANCH   7   8
ATOM      8  N   HIS A   1      12.280  46.584   5.548  0.00  0.00    -0.239 NA
ATOM      9  H   HIS A   1      11.884  45.970   4.808  0.00  0.00    +0.142 HD
ENDBRANCH   7   8
BRANCH   7  10
ATOM     10  C   HIS A   1      12.011  48.658   4.377  0.00  0.00    +0.224 C 
ATOM     11  O   HIS A   1      11.684  48.398   3.214  0.00  0.00    -0.287 OA
ENDBRANCH   7  10
ENDBRANCH   1   7
TORSDOF 4
REMARK  Name = ../refined-set-2016/4aq6/4aq6_pocket.pdb
REMARK  161 active torsions:
REMARK  status: ('A' for Active; 'I' for Inactive)
REMARK    1  A    between atoms: _1  and  _3
REMARK    2  A    between atoms: _3  and  _4
REMARK    3  A    between atoms: _3  and  _6
REMARK    4  A    between atoms: _6  and  _7
REMARK    5  A    between atoms: _13  and  _14
REMARK    6  A    between atoms: _19  and  _21
REMARK    7  A    between atoms: _21  and  _22
REMARK    8  A    between atoms: _21  and  _24
REMARK    9  A    between atoms: _24  and  _25
REMARK   10  A    between atoms: _29  and  _30
REMARK   11  A    between atoms: _35  and  _37
REMARK   12  A    between atoms: _37  and  _38
REMARK   13  A    between atoms: _37  and  _40
REMARK   14  A    between atoms: _40  and  _41
REMARK   15  A    between atoms: _43  and  _45
REMARK   16  A    between atoms: _45  and  _46
REMARK   17  A    between atoms: _45  and  _48
REMARK   18  A    between atoms: _48  and  _49
REMARK   19  A    between atoms: _52  and  _54
REMARK   20  A    between atoms: _54  and  _55
REMARK   21  A    between atoms: _54  and  _57
REMARK   22  A    between atoms: _57  and  _58
REMARK   23  A    between atoms: _64  and  _66
REMARK   24  A    between atoms: _66  and  _67
REMARK   25  A    between atoms: _66  and  _69
REMARK   26  A    between atoms: _72  and  _74
REMARK   27  A    between atoms: _74  and  _75
REMARK   28  A    between atoms: _74  and  _77
REMARK   29  A    between atoms: _77  and  _78
REMARK   30  A    between atoms: _81  and  _83
REMARK   31  A    between atoms: _83  and  _84
REMARK   32  A    between atoms: _83  and  _86
REMARK   33  A    between atoms: _86  and  _87
REMARK   34  A    between atoms: _93  and  _95
REMARK   35  A    between atoms: _95  and  _96
REMARK   36  A    between atoms: _95  and  _98
REMARK   37  A    between atoms: _98  and  _99
REMARK   38  A    between atoms: _99  and  _100
REMARK   39  A    between atoms: _100  and  _101
REMARK   40  A    between atoms: _110  and  _112
REMARK   41  A    between atoms: _112  and  _113
REMARK   42  A    between atoms: _112  and  _115
REMARK   43  A    between atoms: _115  and  _116
REMARK   44  A    between atoms: _116  and  _117
REMARK   45  A    between atoms: _117  and  _118
REMARK   46  A    between atoms: _128  and  _129
REMARK   47  A    between atoms: _135  and  _136
REMARK   48  A    between atoms: _141  and  _143
REMARK   49  A    between atoms: _143  and  _144
REMARK   50  A    between atoms: _143  and  _146
REMARK   51  A    between atoms: _146  and  _147
REMARK   52  A    between atoms: _157  and  _159
REMARK   53  A    between atoms: _159  and  _160
REMARK   54  A    between atoms: _159  and  _162
REMARK   55  A    between atoms: _162  and  _163
REMARK   56  A    between atoms: _169  and  _171
REMARK   57  A    between atoms: _171  and  _172
REMARK   58  A    between atoms: _171  and  _174
REMARK   59  A    between atoms: _174  and  _175
REMARK   60  A    between atoms: _176  and  FE_434
REMARK   61  A    between atoms: _180  and  _182
REMARK   62  A    between atoms: _182  and  _183
REMARK   63  A    between atoms: _182  and  _185
REMARK   64  A    between atoms: _185  and  _186
REMARK   65  A    between atoms: _186  and  _187
REMARK   66  A    between atoms: _187  and  _188
REMARK   67  A    between atoms: _197  and  _199
REMARK   68  A    between atoms: _199  and  _200
REMARK   69  A    between atoms: _199  and  _202
REMARK   70  A    between atoms: _202  and  _203
REMARK   71  A    between atoms: _208  and  _210
REMARK   72  A    between atoms: _210  and  _211
REMARK   73  A    between atoms: _210  and  _213
REMARK   74  A    between atoms: _213  and  _214
REMARK   75  A    between atoms: _214  and  _215
REMARK   76  A    between atoms: _218  and  _220
REMARK   77  A    between atoms: _220  and  _221
REMARK   78  A    between atoms: _220  and  _223
REMARK   79  A    between atoms: _223  and  _224
REMARK   80  A    between atoms: _230  and  _232
REMARK   81  A    between atoms: _232  and  _233
REMARK   82  A    between atoms: _232  and  _235
REMARK   83  A    between atoms: _235  and  _236
REMARK   84  A    between atoms: _236  and  _237
REMARK   85  A    between atoms: _239  and  _241
REMARK   86  A    between atoms: _241  and  _242
REMARK   87  A    between atoms: _241  and  _244
REMARK   88  A    between atoms: _244  and  _245
REMARK   89  A    between atoms: _250  and  _251
REMARK   90  A    between atoms: _253  and  _255
REMARK   91  A    between atoms: _255  and  _256
REMARK   92  A    between atoms: _255  and  _258
REMARK   93  A    between atoms: _258  and  _259
REMARK   94  A    between atoms: _262  and  _264
REMARK   95  A    between atoms: _264  and  _265
REMARK   96  A    between atoms: _268  and  _270
REMARK   97  A    between atoms: _270  and  _271
REMARK   98  A    between atoms: _270  and  _273
REMARK   99  A    between atoms: _273  and  _274
REMARK  100  A    between atoms: _274  and  _275
REMARK  101  A    between atoms: _275  and  _276
REMARK  102  A    between atoms: _276  and  _277
REMARK  103  A    between atoms: _281  and  _283
REMARK  104  A    between atoms: _283  and  _284
REMARK  105  A    between atoms: _283  and  _286
REMARK  106  A    between atoms: _286  and  _287
REMARK  107  A    between atoms: _293  and  _295
REMARK  108  A    between atoms: _295  and  _296
REMARK  109  A    between atoms: _295  and  _298
REMARK  110  A    between atoms: _298  and  _299
REMARK  111  A    between atoms: _301  and  _303
REMARK  112  A    between atoms: _303  and  _304
REMARK  113  A    between atoms: _303  and  _306
REMARK  114  A    between atoms: _306  and  _307
REMARK  115  A    between atoms: _312  and  _314
REMARK  116  A    between atoms: _314  and  _315
REMARK  117  A    between atoms: _314  and  _317
REMARK  118  A    between atoms: _317  and  _318
REMARK  119  A    between atoms: _322  and  FE_434
REMARK  120  A    between atoms: _323  and  _325
REMARK  121  A    between atoms: _325  and  _326
REMARK  122  A    between atoms: _329  and  _330
REMARK  123  A    between atoms: _335  and  _337
REMARK  124  A    between atoms: _337  and  _338
REMARK  125  A    between atoms: _337  and  _340
REMARK  126  A    between atoms: _340  and  _341
REMARK  127  A    between atoms: _344  and  _346
REMARK  128  A    between atoms: _346  and  _347
REMARK  129  A    between atoms: _346  and  _349
REMARK  130  A    between atoms: _349  and  _350
REMARK  131  A    between atoms: _356  and  _358
REMARK  132  A    between atoms: _358  and  _359
REMARK  133  A    between atoms: _358  and  _361
REMARK  134  A    between atoms: _361  and  _362
REMARK  135  A    between atoms: _362  and  _363
REMARK  136  A    between atoms: _365  and  _367
REMARK  137  A    between atoms: _367  and  _368
REMARK  138  A    between atoms: _367  and  _370
REMARK  139  A    between atoms: _370  and  _371
REMARK  140  A    between atoms: _371  and  _372
REMARK  141  A    between atoms: _375  and  _377
REMARK  142  A    between atoms: _377  and  _378
REMARK  143  A    between atoms: _377  and  _380
REMARK  144  A    between atoms: _380  and  _381
REMARK  145  A    between atoms: _386  and  _387
REMARK  146  A    between atoms: _389  and  _391
REMARK  147  A    between atoms: _391  and  _392
REMARK  148  A    between atoms: _391  and  _394
REMARK  149  A    between atoms: _394  and  _395
REMARK  150  A    between atoms: _405  and  _407
REMARK  151  A    between atoms: _407  and  _408
REMARK  152  A    between atoms: _407  and  _410
REMARK  153  A    between atoms: _410  and  _411
REMARK  154  A    between atoms: _414  and  _416
REMARK  155  A    between atoms: _416  and  _417
REMARK  156  A    between atoms: _416  and  _419
REMARK  157  A    between atoms: _419  and  _420
REMARK  158  A    between atoms: _422  and  _424
REMARK  159  A    between atoms: _424  and  _425
REMARK  160  A    between atoms: _424  and  _427
REMARK  161  A    between atoms: _427  and  _428
REMARK                            x       y       z     vdW  Elec       q    Type
REMARK                         _______ _______ _______ _____ _____    ______ ____
ROOT
ATOM      1  C   PHE A   1      10.939  36.831   0.154  0.00  0.00    +0.239 C 
ATOM      2  O   PHE A   1      11.360  37.160   1.271  0.00  0.00    -0.274 OA
ATOM      3  N   MET A   2      10.272  37.637  -0.669  0.00  0.00    -0.298 N 
ATOM      4  H   MET A   2       9.997  37.280  -1.606  0.00  0.00    +0.150 HD
ENDROOT
BRANCH   1   5
ATOM      5  CA  PHE A   1      11.125  35.425  -0.355  0.00  0.00    +0.149 C 
BRANCH   5   6
ATOM      6  N   PHE A   1      12.073  34.720   0.492  0.00  0.00    -0.238 NA
ATOM      7  H   PHE A   1      12.218  35.018   1.478  0.00  0.00    +0.142 HD
ENDBRANCH   5   6
BRANCH   5   8
ATOM      8  CB  PHE A   1       9.771  34.727  -0.337  0.00  0.00    +0.053 C 
BRANCH   8   9
ATOM      9  CG  PHE A   1       9.065  34.866   0.964  0.00  0.00    -0.020 A 
ATOM     10  CD2 PHE A   1       9.207  33.903   1.953  0.00  0.00    -0.004 A 
ATOM     11  CE2 PHE A   1       8.572  34.041   3.166  0.00  0.00    -0.000 A 
ATOM     12  CZ  PHE A   1       7.803  35.142   3.407  0.00  0.00    -0.000 A 
ATOM     13  CE1 PHE A   1       7.648  36.113   2.429  0.00  0.00    -0.000 A 
ATOM     14  CD1 PHE A   1       8.287  35.978   1.219  0.00  0.00    -0.004 A 
ENDBRANCH   8   9
ENDBRANCH   5   8
ENDBRANCH   1   5
BRANCH   3  15
ATOM     15  CA  MET A   2       9.913  38.999  -0.306  0.00  0.00    +0.138 C 
BRANCH  15  16
ATOM     16  C   MET A   2       8.477  39.310  -0.702  0.00  0.00    +0.227 C 
ATOM     17  O   MET A   2       8.029  38.950  -1.790  0.00  0.00    -0.286 OA
ENDBRANCH  15  16
BRANCH  15  18
ATOM     18  CB  MET A   2      10.841  40.013  -0.990  0.00  0.00    +0.039 C 
BRANCH  18  19
ATOM     19  CG  MET A   2      10.546  41.478  -0.605  0.00  0.00    +0.060 C 
BRANCH  19  20
ATOM     20  SD  MET A   2      11.409  42.672  -1.669  0.00  0.00    -0.139 S 
ATOM     21  CE  MET A   2      13.118  42.231  -1.350  0.00  0.00    +0.069 C 
ENDBRANCH  19  20
ENDBRANCH  18  19
ENDBRANCH  15  18
ENDBRANCH   3  15
TORSDOF 9
REMARK  Name = ../refined-set-2016/4aq6/4aq6_pocket.pdb
REMARK  161 active torsions:
REMARK  status: ('A' for Active; 'I' for Inactive)
REMARK    1  A    between atoms: _1  and  _3
REMARK    2  A    between atoms: _3  and  _4
REMARK    3  A    between atoms: _3  and  _6
REMARK    4  A    between atoms: _6  and  _7
REMARK    5  A    between atoms: _13  and  _14
REMARK    6  A    between atoms: _19  and  _21
REMARK    7  A    between atoms: _21  and  _22
REMARK    8  A    between atoms: _21  and  _24
REMARK    9  A    between atoms: _24  and  _25
REMARK   10  A    between atoms: _29  and  _30
REMARK   11  A    between atoms: _35  and  _37
REMARK   12  A    between atoms: _37  and  _38
REMARK   13  A    between atoms: _37  and  _40
REMARK   14  A    between atoms: _40  and  _41
REMARK   15  A    between atoms: _43  and  _45
REMARK   16  A    between atoms: _45  and  _46
REMARK   17  A    between atoms: _45  and  _48
REMARK   18  A    between atoms: _48  and  _49
REMARK   19  A    between atoms: _52  and  _54
REMARK   20  A    between atoms: _54  and  _55
REMARK   21  A    between atoms: _54  and  _57
REMARK   22  A    between atoms: _57  and  _58
REMARK   23  A    between atoms: _64  and  _66
REMARK   24  A    between atoms: _66  and  _67
REMARK   25  A    between atoms: _66  and  _69
REMARK   26  A    between atoms: _72  and  _74
REMARK   27  A    between atoms: _74  and  _75
REMARK   28  A    between atoms: _74  and  _77
REMARK   29  A    between atoms: _77  and  _78
REMARK   30  A    between atoms: _81  and  _83
REMARK   31  A    between atoms: _83  and  _84
REMARK   32  A    between atoms: _83  and  _86
REMARK   33  A    between atoms: _86  and  _87
REMARK   34  A    between atoms: _93  and  _95
REMARK   35  A    between atoms: _95  and  _96
REMARK   36  A    between atoms: _95  and  _98
REMARK   37  A    between atoms: _98  and  _99
REMARK   38  A    between atoms: _99  and  _100
REMARK   39  A    between atoms: _100  and  _101
REMARK   40  A    between atoms: _110  and  _112
REMARK   41  A    between atoms: _112  and  _113
REMARK   42  A    between atoms: _112  and  _115
REMARK   43  A    between atoms: _115  and  _116
REMARK   44  A    between atoms: _116  and  _117
REMARK   45  A    between atoms: _117  and  _118
REMARK   46  A    between atoms: _128  and  _129
REMARK   47  A    between atoms: _135  and  _136
REMARK   48  A    between atoms: _141  and  _143
REMARK   49  A    between atoms: _143  and  _144
REMARK   50  A    between atoms: _143  and  _146
REMARK   51  A    between atoms: _146  and  _147
REMARK   52  A    between atoms: _157  and  _159
REMARK   53  A    between atoms: _159  and  _160
REMARK   54  A    between atoms: _159  and  _162
REMARK   55  A    between atoms: _162  and  _163
REMARK   56  A    between atoms: _169  and  _171
REMARK   57  A    between atoms: _171  and  _172
REMARK   58  A    between atoms: _171  and  _174
REMARK   59  A    between atoms: _174  and  _175
REMARK   60  A    between atoms: _176  and  FE_434
REMARK   61  A    between atoms: _180  and  _182
REMARK   62  A    between atoms: _182  and  _183
REMARK   63  A    between atoms: _182  and  _185
REMARK   64  A    between atoms: _185  and  _186
REMARK   65  A    between atoms: _186  and  _187
REMARK   66  A    between atoms: _187  and  _188
REMARK   67  A    between atoms: _197  and  _199
REMARK   68  A    between atoms: _199  and  _200
REMARK   69  A    between atoms: _199  and  _202
REMARK   70  A    between atoms: _202  and  _203
REMARK   71  A    between atoms: _208  and  _210
REMARK   72  A    between atoms: _210  and  _211
REMARK   73  A    between atoms: _210  and  _213
REMARK   74  A    between atoms: _213  and  _214
REMARK   75  A    between atoms: _214  and  _215
REMARK   76  A    between atoms: _218  and  _220
REMARK   77  A    between atoms: _220  and  _221
REMARK   78  A    between atoms: _220  and  _223
REMARK   79  A    between atoms: _223  and  _224
REMARK   80  A    between atoms: _230  and  _232
REMARK   81  A    between atoms: _232  and  _233
REMARK   82  A    between atoms: _232  and  _235
REMARK   83  A    between atoms: _235  and  _236
REMARK   84  A    between atoms: _236  and  _237
REMARK   85  A    between atoms: _239  and  _241
REMARK   86  A    between atoms: _241  and  _242
REMARK   87  A    between atoms: _241  and  _244
REMARK   88  A    between atoms: _244  and  _245
REMARK   89  A    between atoms: _250  and  _251
REMARK   90  A    between atoms: _253  and  _255
REMARK   91  A    between atoms: _255  and  _256
REMARK   92  A    between atoms: _255  and  _258
REMARK   93  A    between atoms: _258  and  _259
REMARK   94  A    between atoms: _262  and  _264
REMARK   95  A    between atoms: _264  and  _265
REMARK   96  A    between atoms: _268  and  _270
REMARK   97  A    between atoms: _270  and  _271
REMARK   98  A    between atoms: _270  and  _273
REMARK   99  A    between atoms: _273  and  _274
REMARK  100  A    between atoms: _274  and  _275
REMARK  101  A    between atoms: _275  and  _276
REMARK  102  A    between atoms: _276  and  _277
REMARK  103  A    between atoms: _281  and  _283
REMARK  104  A    between atoms: _283  and  _284
REMARK  105  A    between atoms: _283  and  _286
REMARK  106  A    between atoms: _286  and  _287
REMARK  107  A    between atoms: _293  and  _295
REMARK  108  A    between atoms: _295  and  _296
REMARK  109  A    between atoms: _295  and  _298
REMARK  110  A    between atoms: _298  and  _299
REMARK  111  A    between atoms: _301  and  _303
REMARK  112  A    between atoms: _303  and  _304
REMARK  113  A    between atoms: _303  and  _306
REMARK  114  A    between atoms: _306  and  _307
REMARK  115  A    between atoms: _312  and  _314
REMARK  116  A    between atoms: _314  and  _315
REMARK  117  A    between atoms: _314  and  _317
REMARK  118  A    between atoms: _317  and  _318
REMARK  119  A    between atoms: _322  and  FE_434
REMARK  120  A    between atoms: _323  and  _325
REMARK  121  A    between atoms: _325  and  _326
REMARK  122  A    between atoms: _329  and  _330
REMARK  123  A    between atoms: _335  and  _337
REMARK  124  A    between atoms: _337  and  _338
REMARK  125  A    between atoms: _337  and  _340
REMARK  126  A    between atoms: _340  and  _341
REMARK  127  A    between atoms: _344  and  _346
REMARK  128  A    between atoms: _346  and  _347
REMARK  129  A    between atoms: _346  and  _349
REMARK  130  A    between atoms: _349  and  _350
REMARK  131  A    between atoms: _356  and  _358
REMARK  132  A    between atoms: _358  and  _359
REMARK  133  A    between atoms: _358  and  _361
REMARK  134  A    between atoms: _361  and  _362
REMARK  135  A    between atoms: _362  and  _363
REMARK  136  A    between atoms: _365  and  _367
REMARK  137  A    between atoms: _367  and  _368
REMARK  138  A    between atoms: _367  and  _370
REMARK  139  A    between atoms: _370  and  _371
REMARK  140  A    between atoms: _371  and  _372
REMARK  141  A    between atoms: _375  and  _377
REMARK  142  A    between atoms: _377  and  _378
REMARK  143  A    between atoms: _377  and  _380
REMARK  144  A    between atoms: _380  and  _381
REMARK  145  A    between atoms: _386  and  _387
REMARK  146  A    between atoms: _389  and  _391
REMARK  147  A    between atoms: _391  and  _392
REMARK  148  A    between atoms: _391  and  _394
REMARK  149  A    between atoms: _394  and  _395
REMARK  150  A    between atoms: _405  and  _407
REMARK  151  A    between atoms: _407  and  _408
REMARK  152  A    between atoms: _407  and  _410
REMARK  153  A    between atoms: _410  and  _411
REMARK  154  A    between atoms: _414  and  _416
REMARK  155  A    between atoms: _416  and  _417
REMARK  156  A    between atoms: _416  and  _419
REMARK  157  A    between atoms: _419  and  _420
REMARK  158  A    between atoms: _422  and  _424
REMARK  159  A    between atoms: _424  and  _425
REMARK  160  A    between atoms: _424  and  _427
REMARK  161  A    between atoms: _427  and  _428
REMARK                            x       y       z     vdW  Elec       q    Type
REMARK                         _______ _______ _______ _____ _____    ______ ____
ROOT
ATOM      1  CA  GLU A   1       7.350  43.996  -1.812  0.00  0.00    +0.134 C 
ENDROOT
BRANCH   1   2
ATOM      2  N   GLU A   1       7.019  42.592  -1.547  0.00  0.00    -0.239 NA
ATOM      3  H   GLU A   1       6.855  41.953  -2.351  0.00  0.00    +0.142 HD
ENDBRANCH   1   2
BRANCH   1   4
ATOM      4  C   GLU A   1       6.074  44.771  -2.126  0.00  0.00    +0.224 C 
ATOM      5  O   GLU A   1       5.366  44.432  -3.073  0.00  0.00    -0.287 OA
ENDBRANCH   1   4
BRANCH   1   6
ATOM      6  CB  GLU A   1       8.339  44.129  -2.989  0.00  0.00    +0.037 C 
BRANCH   6   7
ATOM      7  CG  GLU A   1       8.893  45.556  -3.173  0.00  0.00    +0.116 C 
BRANCH   7   8
ATOM      8  CD  GLU A   1       9.570  45.801  -4.535  0.00  0.00    +0.365 C 
ATOM      9  OE2 GLU A   1      10.652  46.453  -4.570  0.00  0.00    -0.246 OA
ATOM     10  OE1 GLU A   1       9.021  45.359  -5.576  0.00  0.00    -0.246 OA
ENDBRANCH   7   8
ENDBRANCH   6   7
ENDBRANCH   1   6
TORSDOF 5
REMARK  Name = ../refined-set-2016/4aq6/4aq6_pocket.pdb
REMARK  161 active torsions:
REMARK  status: ('A' for Active; 'I' for Inactive)
REMARK    1  A    between atoms: _1  and  _3
REMARK    2  A    between atoms: _3  and  _4
REMARK    3  A    between atoms: _3  and  _6
REMARK    4  A    between atoms: _6  and  _7
REMARK    5  A    between atoms: _13  and  _14
REMARK    6  A    between atoms: _19  and  _21
REMARK    7  A    between atoms: _21  and  _22
REMARK    8  A    between atoms: _21  and  _24
REMARK    9  A    between atoms: _24  and  _25
REMARK   10  A    between atoms: _29  and  _30
REMARK   11  A    between atoms: _35  and  _37
REMARK   12  A    between atoms: _37  and  _38
REMARK   13  A    between atoms: _37  and  _40
REMARK   14  A    between atoms: _40  and  _41
REMARK   15  A    between atoms: _43  and  _45
REMARK   16  A    between atoms: _45  and  _46
REMARK   17  A    between atoms: _45  and  _48
REMARK   18  A    between atoms: _48  and  _49
REMARK   19  A    between atoms: _52  and  _54
REMARK   20  A    between atoms: _54  and  _55
REMARK   21  A    between atoms: _54  and  _57
REMARK   22  A    between atoms: _57  and  _58
REMARK   23  A    between atoms: _64  and  _66
REMARK   24  A    between atoms: _66  and  _67
REMARK   25  A    between atoms: _66  and  _69
REMARK   26  A    between atoms: _72  and  _74
REMARK   27  A    between atoms: _74  and  _75
REMARK   28  A    between atoms: _74  and  _77
REMARK   29  A    between atoms: _77  and  _78
REMARK   30  A    between atoms: _81  and  _83
REMARK   31  A    between atoms: _83  and  _84
REMARK   32  A    between atoms: _83  and  _86
REMARK   33  A    between atoms: _86  and  _87
REMARK   34  A    between atoms: _93  and  _95
REMARK   35  A    between atoms: _95  and  _96
REMARK   36  A    between atoms: _95  and  _98
REMARK   37  A    between atoms: _98  and  _99
REMARK   38  A    between atoms: _99  and  _100
REMARK   39  A    between atoms: _100  and  _101
REMARK   40  A    between atoms: _110  and  _112
REMARK   41  A    between atoms: _112  and  _113
REMARK   42  A    between atoms: _112  and  _115
REMARK   43  A    between atoms: _115  and  _116
REMARK   44  A    between atoms: _116  and  _117
REMARK   45  A    between atoms: _117  and  _118
REMARK   46  A    between atoms: _128  and  _129
REMARK   47  A    between atoms: _135  and  _136
REMARK   48  A    between atoms: _141  and  _143
REMARK   49  A    between atoms: _143  and  _144
REMARK   50  A    between atoms: _143  and  _146
REMARK   51  A    between atoms: _146  and  _147
REMARK   52  A    between atoms: _157  and  _159
REMARK   53  A    between atoms: _159  and  _160
REMARK   54  A    between atoms: _159  and  _162
REMARK   55  A    between atoms: _162  and  _163
REMARK   56  A    between atoms: _169  and  _171
REMARK   57  A    between atoms: _171  and  _172
REMARK   58  A    between atoms: _171  and  _174
REMARK   59  A    between atoms: _174  and  _175
REMARK   60  A    between atoms: _176  and  FE_434
REMARK   61  A    between atoms: _180  and  _182
REMARK   62  A    between atoms: _182  and  _183
REMARK   63  A    between atoms: _182  and  _185
REMARK   64  A    between atoms: _185  and  _186
REMARK   65  A    between atoms: _186  and  _187
REMARK   66  A    between atoms: _187  and  _188
REMARK   67  A    between atoms: _197  and  _199
REMARK   68  A    between atoms: _199  and  _200
REMARK   69  A    between atoms: _199  and  _202
REMARK   70  A    between atoms: _202  and  _203
REMARK   71  A    between atoms: _208  and  _210
REMARK   72  A    between atoms: _210  and  _211
REMARK   73  A    between atoms: _210  and  _213
REMARK   74  A    between atoms: _213  and  _214
REMARK   75  A    between atoms: _214  and  _215
REMARK   76  A    between atoms: _218  and  _220
REMARK   77  A    between atoms: _220  and  _221
REMARK   78  A    between atoms: _220  and  _223
REMARK   79  A    between atoms: _223  and  _224
REMARK   80  A    between atoms: _230  and  _232
REMARK   81  A    between atoms: _232  and  _233
REMARK   82  A    between atoms: _232  and  _235
REMARK   83  A    between atoms: _235  and  _236
REMARK   84  A    between atoms: _236  and  _237
REMARK   85  A    between atoms: _239  and  _241
REMARK   86  A    between atoms: _241  and  _242
REMARK   87  A    between atoms: _241  and  _244
REMARK   88  A    between atoms: _244  and  _245
REMARK   89  A    between atoms: _250  and  _251
REMARK   90  A    between atoms: _253  and  _255
REMARK   91  A    between atoms: _255  and  _256
REMARK   92  A    between atoms: _255  and  _258
REMARK   93  A    between atoms: _258  and  _259
REMARK   94  A    between atoms: _262  and  _264
REMARK   95  A    between atoms: _264  and  _265
REMARK   96  A    between atoms: _268  and  _270
REMARK   97  A    between atoms: _270  and  _271
REMARK   98  A    between atoms: _270  and  _273
REMARK   99  A    between atoms: _273  and  _274
REMARK  100  A    between atoms: _274  and  _275
REMARK  101  A    between atoms: _275  and  _276
REMARK  102  A    between atoms: _276  and  _277
REMARK  103  A    between atoms: _281  and  _283
REMARK  104  A    between atoms: _283  and  _284
REMARK  105  A    between atoms: _283  and  _286
REMARK  106  A    between atoms: _286  and  _287
REMARK  107  A    between atoms: _293  and  _295
REMARK  108  A    between atoms: _295  and  _296
REMARK  109  A    between atoms: _295  and  _298
REMARK  110  A    between atoms: _298  and  _299
REMARK  111  A    between atoms: _301  and  _303
REMARK  112  A    between atoms: _303  and  _304
REMARK  113  A    between atoms: _303  and  _306
REMARK  114  A    between atoms: _306  and  _307
REMARK  115  A    between atoms: _312  and  _314
REMARK  116  A    between atoms: _314  and  _315
REMARK  117  A    between atoms: _314  and  _317
REMARK  118  A    between atoms: _317  and  _318
REMARK  119  A    between atoms: _322  and  FE_434
REMARK  120  A    between atoms: _323  and  _325
REMARK  121  A    between atoms: _325  and  _326
REMARK  122  A    between atoms: _329  and  _330
REMARK  123  A    between atoms: _335  and  _337
REMARK  124  A    between atoms: _337  and  _338
REMARK  125  A    between atoms: _337  and  _340
REMARK  126  A    between atoms: _340  and  _341
REMARK  127  A    between atoms: _344  and  _346
REMARK  128  A    between atoms: _346  and  _347
REMARK  129  A    between atoms: _346  and  _349
REMARK  130  A    between atoms: _349  and  _350
REMARK  131  A    between atoms: _356  and  _358
REMARK  132  A    between atoms: _358  and  _359
REMARK  133  A    between atoms: _358  and  _361
REMARK  134  A    between atoms: _361  and  _362
REMARK  135  A    between atoms: _362  and  _363
REMARK  136  A    between atoms: _365  and  _367
REMARK  137  A    between atoms: _367  and  _368
REMARK  138  A    between atoms: _367  and  _370
REMARK  139  A    between atoms: _370  and  _371
REMARK  140  A    between atoms: _371  and  _372
REMARK  141  A    between atoms: _375  and  _377
REMARK  142  A    between atoms: _377  and  _378
REMARK  143  A    between atoms: _377  and  _380
REMARK  144  A    between atoms: _380  and  _381
REMARK  145  A    between atoms: _386  and  _387
REMARK  146  A    between atoms: _389  and  _391
REMARK  147  A    between atoms: _391  and  _392
REMARK  148  A    between atoms: _391  and  _394
REMARK  149  A    between atoms: _394  and  _395
REMARK  150  A    between atoms: _405  and  _407
REMARK  151  A    between atoms: _407  and  _408
REMARK  152  A    between atoms: _407  and  _410
REMARK  153  A    between atoms: _410  and  _411
REMARK  154  A    between atoms: _414  and  _416
REMARK  155  A    between atoms: _416  and  _417
REMARK  156  A    between atoms: _416  and  _419
REMARK  157  A    between atoms: _419  and  _420
REMARK  158  A    between atoms: _422  and  _424
REMARK  159  A    between atoms: _424  and  _425
REMARK  160  A    between atoms: _424  and  _427
REMARK  161  A    between atoms: _427  and  _428
REMARK                            x       y       z     vdW  Elec       q    Type
REMARK                         _______ _______ _______ _____ _____    ______ ____
ROOT
ATOM      1  CG  TYR A   1      18.088  44.619  11.730  0.00  0.00    -0.020 A 
ATOM      2  CD2 TYR A   1      19.097  43.828  11.198  0.00  0.00    -0.001 A 
ATOM      3  CE2 TYR A   1      19.096  43.464   9.849  0.00  0.00    +0.036 A 
ATOM      4  CZ  TYR A   1      18.067  43.896   9.022  0.00  0.00    +0.134 A 
ATOM      5  CE1 TYR A   1      17.045  44.687   9.531  0.00  0.00    +0.036 A 
ATOM      6  CD1 TYR A   1      17.063  45.048  10.879  0.00  0.00    -0.001 A 
ENDROOT
BRANCH   4   7
ATOM      7  OH  TYR A   1      18.054  43.534   7.689  0.00  0.00    -0.506 OA
ATOM      8  HH  TYR A   1      18.075  44.349   7.127  0.00  0.00    +0.292 HD
ENDBRANCH   4   7
BRANCH   1   9
ATOM      9  CB  TYR A   1      18.085  45.011  13.191  0.00  0.00    +0.051 C 
BRANCH   9  10
ATOM     10  CA  TYR A   1      19.454  45.001  13.887  0.00  0.00    +0.137 C 
BRANCH  10  11
ATOM     11  N   TYR A   1      19.290  45.385  15.282  0.00  0.00    -0.239 NA
ATOM     12  H   TYR A   1      18.348  45.653  15.633  0.00  0.00    +0.142 HD
ENDBRANCH  10  11
BRANCH  10  13
ATOM     13  C   TYR A   1      20.456  45.941  13.195  0.00  0.00    +0.224 C 
ATOM     14  O   TYR A   1      21.269  45.506  12.379  0.00  0.00    -0.287 OA
ENDBRANCH  10  13
ENDBRANCH   9  10
ENDBRANCH   1   9
TORSDOF 5
REMARK  Name = ../refined-set-2016/4aq6/4aq6_pocket.pdb
REMARK  161 active torsions:
REMARK  status: ('A' for Active; 'I' for Inactive)
REMARK    1  A    between atoms: _1  and  _3
REMARK    2  A    between atoms: _3  and  _4
REMARK    3  A    between atoms: _3  and  _6
REMARK    4  A    between atoms: _6  and  _7
REMARK    5  A    between atoms: _13  and  _14
REMARK    6  A    between atoms: _19  and  _21
REMARK    7  A    between atoms: _21  and  _22
REMARK    8  A    between atoms: _21  and  _24
REMARK    9  A    between atoms: _24  and  _25
REMARK   10  A    between atoms: _29  and  _30
REMARK   11  A    between atoms: _35  and  _37
REMARK   12  A    between atoms: _37  and  _38
REMARK   13  A    between atoms: _37  and  _40
REMARK   14  A    between atoms: _40  and  _41
REMARK   15  A    between atoms: _43  and  _45
REMARK   16  A    between atoms: _45  and  _46
REMARK   17  A    between atoms: _45  and  _48
REMARK   18  A    between atoms: _48  and  _49
REMARK   19  A    between atoms: _52  and  _54
REMARK   20  A    between atoms: _54  and  _55
REMARK   21  A    between atoms: _54  and  _57
REMARK   22  A    between atoms: _57  and  _58
REMARK   23  A    between atoms: _64  and  _66
REMARK   24  A    between atoms: _66  and  _67
REMARK   25  A    between atoms: _66  and  _69
REMARK   26  A    between atoms: _72  and  _74
REMARK   27  A    between atoms: _74  and  _75
REMARK   28  A    between atoms: _74  and  _77
REMARK   29  A    between atoms: _77  and  _78
REMARK   30  A    between atoms: _81  and  _83
REMARK   31  A    between atoms: _83  and  _84
REMARK   32  A    between atoms: _83  and  _86
REMARK   33  A    between atoms: _86  and  _87
REMARK   34  A    between atoms: _93  and  _95
REMARK   35  A    between atoms: _95  and  _96
REMARK   36  A    between atoms: _95  and  _98
REMARK   37  A    between atoms: _98  and  _99
REMARK   38  A    between atoms: _99  and  _100
REMARK   39  A    between atoms: _100  and  _101
REMARK   40  A    between atoms: _110  and  _112
REMARK   41  A    between atoms: _112  and  _113
REMARK   42  A    between atoms: _112  and  _115
REMARK   43  A    between atoms: _115  and  _116
REMARK   44  A    between atoms: _116  and  _117
REMARK   45  A    between atoms: _117  and  _118
REMARK   46  A    between atoms: _128  and  _129
REMARK   47  A    between atoms: _135  and  _136
REMARK   48  A    between atoms: _141  and  _143
REMARK   49  A    between atoms: _143  and  _144
REMARK   50  A    between atoms: _143  and  _146
REMARK   51  A    between atoms: _146  and  _147
REMARK   52  A    between atoms: _157  and  _159
REMARK   53  A    between atoms: _159  and  _160
REMARK   54  A    between atoms: _159  and  _162
REMARK   55  A    between atoms: _162  and  _163
REMARK   56  A    between atoms: _169  and  _171
REMARK   57  A    between atoms: _171  and  _172
REMARK   58  A    between atoms: _171  and  _174
REMARK   59  A    between atoms: _174  and  _175
REMARK   60  A    between atoms: _176  and  FE_434
REMARK   61  A    between atoms: _180  and  _182
REMARK   62  A    between atoms: _182  and  _183
REMARK   63  A    between atoms: _182  and  _185
REMARK   64  A    between atoms: _185  and  _186
REMARK   65  A    between atoms: _186  and  _187
REMARK   66  A    between atoms: _187  and  _188
REMARK   67  A    between atoms: _197  and  _199
REMARK   68  A    between atoms: _199  and  _200
REMARK   69  A    between atoms: _199  and  _202
REMARK   70  A    between atoms: _202  and  _203
REMARK   71  A    between atoms: _208  and  _210
REMARK   72  A    between atoms: _210  and  _211
REMARK   73  A    between atoms: _210  and  _213
REMARK   74  A    between atoms: _213  and  _214
REMARK   75  A    between atoms: _214  and  _215
REMARK   76  A    between atoms: _218  and  _220
REMARK   77  A    between atoms: _220  and  _221
REMARK   78  A    between atoms: _220  and  _223
REMARK   79  A    between atoms: _223  and  _224
REMARK   80  A    between atoms: _230  and  _232
REMARK   81  A    between atoms: _232  and  _233
REMARK   82  A    between atoms: _232  and  _235
REMARK   83  A    between atoms: _235  and  _236
REMARK   84  A    between atoms: _236  and  _237
REMARK   85  A    between atoms: _239  and  _241
REMARK   86  A    between atoms: _241  and  _242
REMARK   87  A    between atoms: _241  and  _244
REMARK   88  A    between atoms: _244  and  _245
REMARK   89  A    between atoms: _250  and  _251
REMARK   90  A    between atoms: _253  and  _255
REMARK   91  A    between atoms: _255  and  _256
REMARK   92  A    between atoms: _255  and  _258
REMARK   93  A    between atoms: _258  and  _259
REMARK   94  A    between atoms: _262  and  _264
REMARK   95  A    between atoms: _264  and  _265
REMARK   96  A    between atoms: _268  and  _270
REMARK   97  A    between atoms: _270  and  _271
REMARK   98  A    between atoms: _270  and  _273
REMARK   99  A    between atoms: _273  and  _274
REMARK  100  A    between atoms: _274  and  _275
REMARK  101  A    between atoms: _275  and  _276
REMARK  102  A    between atoms: _276  and  _277
REMARK  103  A    between atoms: _281  and  _283
REMARK  104  A    between atoms: _283  and  _284
REMARK  105  A    between atoms: _283  and  _286
REMARK  106  A    between atoms: _286  and  _287
REMARK  107  A    between atoms: _293  and  _295
REMARK  108  A    between atoms: _295  and  _296
REMARK  109  A    between atoms: _295  and  _298
REMARK  110  A    between atoms: _298  and  _299
REMARK  111  A    between atoms: _301  and  _303
REMARK  112  A    between atoms: _303  and  _304
REMARK  113  A    between atoms: _303  and  _306
REMARK  114  A    between atoms: _306  and  _307
REMARK  115  A    between atoms: _312  and  _314
REMARK  116  A    between atoms: _314  and  _315
REMARK  117  A    between atoms: _314  and  _317
REMARK  118  A    between atoms: _317  and  _318
REMARK  119  A    between atoms: _322  and  FE_434
REMARK  120  A    between atoms: _323  and  _325
REMARK  121  A    between atoms: _325  and  _326
REMARK  122  A    between atoms: _329  and  _330
REMARK  123  A    between atoms: _335  and  _337
REMARK  124  A    between atoms: _337  and  _338
REMARK  125  A    between atoms: _337  and  _340
REMARK  126  A    between atoms: _340  and  _341
REMARK  127  A    between atoms: _344  and  _346
REMARK  128  A    between atoms: _346  and  _347
REMARK  129  A    between atoms: _346  and  _349
REMARK  130  A    between atoms: _349  and  _350
REMARK  131  A    between atoms: _356  and  _358
REMARK  132  A    between atoms: _358  and  _359
REMARK  133  A    between atoms: _358  and  _361
REMARK  134  A    between atoms: _361  and  _362
REMARK  135  A    between atoms: _362  and  _363
REMARK  136  A    between atoms: _365  and  _367
REMARK  137  A    between atoms: _367  and  _368
REMARK  138  A    between atoms: _367  and  _370
REMARK  139  A    between atoms: _370  and  _371
REMARK  140  A    between atoms: _371  and  _372
REMARK  141  A    between atoms: _375  and  _377
REMARK  142  A    between atoms: _377  and  _378
REMARK  143  A    between atoms: _377  and  _380
REMARK  144  A    between atoms: _380  and  _381
REMARK  145  A    between atoms: _386  and  _387
REMARK  146  A    between atoms: _389  and  _391
REMARK  147  A    between atoms: _391  and  _392
REMARK  148  A    between atoms: _391  and  _394
REMARK  149  A    between atoms: _394  and  _395
REMARK  150  A    between atoms: _405  and  _407
REMARK  151  A    between atoms: _407  and  _408
REMARK  152  A    between atoms: _407  and  _410
REMARK  153  A    between atoms: _410  and  _411
REMARK  154  A    between atoms: _414  and  _416
REMARK  155  A    between atoms: _416  and  _417
REMARK  156  A    between atoms: _416  and  _419
REMARK  157  A    between atoms: _419  and  _420
REMARK  158  A    between atoms: _422  and  _424
REMARK  159  A    between atoms: _424  and  _425
REMARK  160  A    between atoms: _424  and  _427
REMARK  161  A    between atoms: _427  and  _428
REMARK                            x       y       z     vdW  Elec       q    Type
REMARK                         _______ _______ _______ _____ _____    ______ ____
ROOT
ATOM      1  CG  TRP A   1      23.989  47.391   7.680  0.00  0.00    -0.002 A 
ATOM      2  CD2 TRP A   1      22.586  47.216   7.957  0.00  0.00    +0.013 A 
ATOM      3  CE3 TRP A   1      21.752  47.579   9.020  0.00  0.00    +0.001 A 
ATOM      4  CZ3 TRP A   1      20.410  47.234   8.962  0.00  0.00    +0.000 A 
ATOM      5  CH2 TRP A   1      19.892  46.512   7.881  0.00  0.00    +0.001 A 
ATOM      6  CZ2 TRP A   1      20.685  46.140   6.829  0.00  0.00    +0.017 A 
ATOM      7  CE2 TRP A   1      22.039  46.496   6.884  0.00  0.00    +0.056 A 
ATOM      8  NE1 TRP A   1      23.054  46.251   5.997  0.00  0.00    -0.352 N 
ATOM      9  HE1 TRP A   1      22.959  45.731   5.101  0.00  0.00    +0.166 HD
ATOM     10  CD1 TRP A   1      24.214  46.799   6.476  0.00  0.00    +0.068 A 
ENDROOT
BRANCH   1  11
ATOM     11  CB  TRP A   1      25.003  48.119   8.533  0.00  0.00    +0.053 C 
BRANCH  11  12
ATOM     12  CA  TRP A   1      26.036  47.245   9.252  0.00  0.00    +0.137 C 
BRANCH  12  13
ATOM     13  N   TRP A   1      25.374  46.390  10.232  0.00  0.00    -0.239 NA
ATOM     14  H   TRP A   1      24.685  46.815  10.885  0.00  0.00    +0.142 HD
ENDBRANCH  12  13
BRANCH  12  15
ATOM     15  C   TRP A   1      27.087  48.165   9.895  0.00  0.00    +0.224 C 
ATOM     16  O   TRP A   1      27.750  48.933   9.200  0.00  0.00    -0.287 OA
ENDBRANCH  12  15
ENDBRANCH  11  12
ENDBRANCH   1  11
TORSDOF 4
REMARK  Name = ../refined-set-2016/4aq6/4aq6_pocket.pdb
REMARK  161 active torsions:
REMARK  status: ('A' for Active; 'I' for Inactive)
REMARK    1  A    between atoms: _1  and  _3
REMARK    2  A    between atoms: _3  and  _4
REMARK    3  A    between atoms: _3  and  _6
REMARK    4  A    between atoms: _6  and  _7
REMARK    5  A    between atoms: _13  and  _14
REMARK    6  A    between atoms: _19  and  _21
REMARK    7  A    between atoms: _21  and  _22
REMARK    8  A    between atoms: _21  and  _24
REMARK    9  A    between atoms: _24  and  _25
REMARK   10  A    between atoms: _29  and  _30
REMARK   11  A    between atoms: _35  and  _37
REMARK   12  A    between atoms: _37  and  _38
REMARK   13  A    between atoms: _37  and  _40
REMARK   14  A    between atoms: _40  and  _41
REMARK   15  A    between atoms: _43  and  _45
REMARK   16  A    between atoms: _45  and  _46
REMARK   17  A    between atoms: _45  and  _48
REMARK   18  A    between atoms: _48  and  _49
REMARK   19  A    between atoms: _52  and  _54
REMARK   20  A    between atoms: _54  and  _55
REMARK   21  A    between atoms: _54  and  _57
REMARK   22  A    between atoms: _57  and  _58
REMARK   23  A    between atoms: _64  and  _66
REMARK   24  A    between atoms: _66  and  _67
REMARK   25  A    between atoms: _66  and  _69
REMARK   26  A    between atoms: _72  and  _74
REMARK   27  A    between atoms: _74  and  _75
REMARK   28  A    between atoms: _74  and  _77
REMARK   29  A    between atoms: _77  and  _78
REMARK   30  A    between atoms: _81  and  _83
REMARK   31  A    between atoms: _83  and  _84
REMARK   32  A    between atoms: _83  and  _86
REMARK   33  A    between atoms: _86  and  _87
REMARK   34  A    between atoms: _93  and  _95
REMARK   35  A    between atoms: _95  and  _96
REMARK   36  A    between atoms: _95  and  _98
REMARK   37  A    between atoms: _98  and  _99
REMARK   38  A    between atoms: _99  and  _100
REMARK   39  A    between atoms: _100  and  _101
REMARK   40  A    between atoms: _110  and  _112
REMARK   41  A    between atoms: _112  and  _113
REMARK   42  A    between atoms: _112  and  _115
REMARK   43  A    between atoms: _115  and  _116
REMARK   44  A    between atoms: _116  and  _117
REMARK   45  A    between atoms: _117  and  _118
REMARK   46  A    between atoms: _128  and  _129
REMARK   47  A    between atoms: _135  and  _136
REMARK   48  A    between atoms: _141  and  _143
REMARK   49  A    between atoms: _143  and  _144
REMARK   50  A    between atoms: _143  and  _146
REMARK   51  A    between atoms: _146  and  _147
REMARK   52  A    between atoms: _157  and  _159
REMARK   53  A    between atoms: _159  and  _160
REMARK   54  A    between atoms: _159  and  _162
REMARK   55  A    between atoms: _162  and  _163
REMARK   56  A    between atoms: _169  and  _171
REMARK   57  A    between atoms: _171  and  _172
REMARK   58  A    between atoms: _171  and  _174
REMARK   59  A    between atoms: _174  and  _175
REMARK   60  A    between atoms: _176  and  FE_434
REMARK   61  A    between atoms: _180  and  _182
REMARK   62  A    between atoms: _182  and  _183
REMARK   63  A    between atoms: _182  and  _185
REMARK   64  A    between atoms: _185  and  _186
REMARK   65  A    between atoms: _186  and  _187
REMARK   66  A    between atoms: _187  and  _188
REMARK   67  A    between atoms: _197  and  _199
REMARK   68  A    between atoms: _199  and  _200
REMARK   69  A    between atoms: _199  and  _202
REMARK   70  A    between atoms: _202  and  _203
REMARK   71  A    between atoms: _208  and  _210
REMARK   72  A    between atoms: _210  and  _211
REMARK   73  A    between atoms: _210  and  _213
REMARK   74  A    between atoms: _213  and  _214
REMARK   75  A    between atoms: _214  and  _215
REMARK   76  A    between atoms: _218  and  _220
REMARK   77  A    between atoms: _220  and  _221
REMARK   78  A    between atoms: _220  and  _223
REMARK   79  A    between atoms: _223  and  _224
REMARK   80  A    between atoms: _230  and  _232
REMARK   81  A    between atoms: _232  and  _233
REMARK   82  A    between atoms: _232  and  _235
REMARK   83  A    between atoms: _235  and  _236
REMARK   84  A    between atoms: _236  and  _237
REMARK   85  A    between atoms: _239  and  _241
REMARK   86  A    between atoms: _241  and  _242
REMARK   87  A    between atoms: _241  and  _244
REMARK   88  A    between atoms: _244  and  _245
REMARK   89  A    between atoms: _250  and  _251
REMARK   90  A    between atoms: _253  and  _255
REMARK   91  A    between atoms: _255  and  _256
REMARK   92  A    between atoms: _255  and  _258
REMARK   93  A    between atoms: _258  and  _259
REMARK   94  A    between atoms: _262  and  _264
REMARK   95  A    between atoms: _264  and  _265
REMARK   96  A    between atoms: _268  and  _270
REMARK   97  A    between atoms: _270  and  _271
REMARK   98  A    between atoms: _270  and  _273
REMARK   99  A    between atoms: _273  and  _274
REMARK  100  A    between atoms: _274  and  _275
REMARK  101  A    between atoms: _275  and  _276
REMARK  102  A    between atoms: _276  and  _277
REMARK  103  A    between atoms: _281  and  _283
REMARK  104  A    between atoms: _283  and  _284
REMARK  105  A    between atoms: _283  and  _286
REMARK  106  A    between atoms: _286  and  _287
REMARK  107  A    between atoms: _293  and  _295
REMARK  108  A    between atoms: _295  and  _296
REMARK  109  A    between atoms: _295  and  _298
REMARK  110  A    between atoms: _298  and  _299
REMARK  111  A    between atoms: _301  and  _303
REMARK  112  A    between atoms: _303  and  _304
REMARK  113  A    between atoms: _303  and  _306
REMARK  114  A    between atoms: _306  and  _307
REMARK  115  A    between atoms: _312  and  _314
REMARK  116  A    between atoms: _314  and  _315
REMARK  117  A    between atoms: _314  and  _317
REMARK  118  A    between atoms: _317  and  _318
REMARK  119  A    between atoms: _322  and  FE_434
REMARK  120  A    between atoms: _323  and  _325
REMARK  121  A    between atoms: _325  and  _326
REMARK  122  A    between atoms: _329  and  _330
REMARK  123  A    between atoms: _335  and  _337
REMARK  124  A    between atoms: _337  and  _338
REMARK  125  A    between atoms: _337  and  _340
REMARK  126  A    between atoms: _340  and  _341
REMARK  127  A    between atoms: _344  and  _346
REMARK  128  A    between atoms: _346  and  _347
REMARK  129  A    between atoms: _346  and  _349
REMARK  130  A    between atoms: _349  and  _350
REMARK  131  A    between atoms: _356  and  _358
REMARK  132  A    between atoms: _358  and  _359
REMARK  133  A    between atoms: _358  and  _361
REMARK  134  A    between atoms: _361  and  _362
REMARK  135  A    between atoms: _362  and  _363
REMARK  136  A    between atoms: _365  and  _367
REMARK  137  A    between atoms: _367  and  _368
REMARK  138  A    between atoms: _367  and  _370
REMARK  139  A    between atoms: _370  and  _371
REMARK  140  A    between atoms: _371  and  _372
REMARK  141  A    between atoms: _375  and  _377
REMARK  142  A    between atoms: _377  and  _378
REMARK  143  A    between atoms: _377  and  _380
REMARK  144  A    between atoms: _380  and  _381
REMARK  145  A    between atoms: _386  and  _387
REMARK  146  A    between atoms: _389  and  _391
REMARK  147  A    between atoms: _391  and  _392
REMARK  148  A    between atoms: _391  and  _394
REMARK  149  A    between atoms: _394  and  _395
REMARK  150  A    between atoms: _405  and  _407
REMARK  151  A    between atoms: _407  and  _408
REMARK  152  A    between atoms: _407  and  _410
REMARK  153  A    between atoms: _410  and  _411
REMARK  154  A    between atoms: _414  and  _416
REMARK  155  A    between atoms: _416  and  _417
REMARK  156  A    between atoms: _416  and  _419
REMARK  157  A    between atoms: _419  and  _420
REMARK  158  A    between atoms: _422  and  _424
REMARK  159  A    between atoms: _424  and  _425
REMARK  160  A    between atoms: _424  and  _427
REMARK  161  A    between atoms: _427  and  _428
REMARK                            x       y       z     vdW  Elec       q    Type
REMARK                         _______ _______ _______ _____ _____    ______ ____
ROOT
ATOM      1  CA  LEU A   1      21.297  52.006  -6.004  0.00  0.00    +0.133 C 
ENDROOT
BRANCH   1   2
ATOM      2  N   LEU A   1      22.369  51.646  -5.081  0.00  0.00    -0.239 NA
ATOM      3  H   LEU A   1      22.242  50.839  -4.438  0.00  0.00    +0.142 HD
ENDBRANCH   1   2
BRANCH   1   4
ATOM      4  C   LEU A   1      20.158  52.745  -5.304  0.00  0.00    +0.224 C 
ATOM      5  O   LEU A   1      19.619  52.279  -4.308  0.00  0.00    -0.287 OA
ENDBRANCH   1   4
BRANCH   1   6
ATOM      6  CB  LEU A   1      20.764  50.778  -6.763  0.00  0.00    +0.025 C 
BRANCH   6   7
ATOM      7  CG  LEU A   1      19.576  51.031  -7.722  0.00  0.00    +0.002 C 
ATOM      8  CD2 LEU A   1      19.062  49.722  -8.327  0.00  0.00    +0.000 C 
ATOM      9  CD1 LEU A   1      19.936  52.037  -8.838  0.00  0.00    +0.000 C 
ENDBRANCH   6   7
ENDBRANCH   1   6
TORSDOF 4
REMARK  Name = ../refined-set-2016/4aq6/4aq6_pocket.pdb
REMARK  161 active torsions:
REMARK  status: ('A' for Active; 'I' for Inactive)
REMARK    1  A    between atoms: _1  and  _3
REMARK    2  A    between atoms: _3  and  _4
REMARK    3  A    between atoms: _3  and  _6
REMARK    4  A    between atoms: _6  and  _7
REMARK    5  A    between atoms: _13  and  _14
REMARK    6  A    between atoms: _19  and  _21
REMARK    7  A    between atoms: _21  and  _22
REMARK    8  A    between atoms: _21  and  _24
REMARK    9  A    between atoms: _24  and  _25
REMARK   10  A    between atoms: _29  and  _30
REMARK   11  A    between atoms: _35  and  _37
REMARK   12  A    between atoms: _37  and  _38
REMARK   13  A    between atoms: _37  and  _40
REMARK   14  A    between atoms: _40  and  _41
REMARK   15  A    between atoms: _43  and  _45
REMARK   16  A    between atoms: _45  and  _46
REMARK   17  A    between atoms: _45  and  _48
REMARK   18  A    between atoms: _48  and  _49
REMARK   19  A    between atoms: _52  and  _54
REMARK   20  A    between atoms: _54  and  _55
REMARK   21  A    between atoms: _54  and  _57
REMARK   22  A    between atoms: _57  and  _58
REMARK   23  A    between atoms: _64  and  _66
REMARK   24  A    between atoms: _66  and  _67
REMARK   25  A    between atoms: _66  and  _69
REMARK   26  A    between atoms: _72  and  _74
REMARK   27  A    between atoms: _74  and  _75
REMARK   28  A    between atoms: _74  and  _77
REMARK   29  A    between atoms: _77  and  _78
REMARK   30  A    between atoms: _81  and  _83
REMARK   31  A    between atoms: _83  and  _84
REMARK   32  A    between atoms: _83  and  _86
REMARK   33  A    between atoms: _86  and  _87
REMARK   34  A    between atoms: _93  and  _95
REMARK   35  A    between atoms: _95  and  _96
REMARK   36  A    between atoms: _95  and  _98
REMARK   37  A    between atoms: _98  and  _99
REMARK   38  A    between atoms: _99  and  _100
REMARK   39  A    between atoms: _100  and  _101
REMARK   40  A    between atoms: _110  and  _112
REMARK   41  A    between atoms: _112  and  _113
REMARK   42  A    between atoms: _112  and  _115
REMARK   43  A    between atoms: _115  and  _116
REMARK   44  A    between atoms: _116  and  _117
REMARK   45  A    between atoms: _117  and  _118
REMARK   46  A    between atoms: _128  and  _129
REMARK   47  A    between atoms: _135  and  _136
REMARK   48  A    between atoms: _141  and  _143
REMARK   49  A    between atoms: _143  and  _144
REMARK   50  A    between atoms: _143  and  _146
REMARK   51  A    between atoms: _146  and  _147
REMARK   52  A    between atoms: _157  and  _159
REMARK   53  A    between atoms: _159  and  _160
REMARK   54  A    between atoms: _159  and  _162
REMARK   55  A    between atoms: _162  and  _163
REMARK   56  A    between atoms: _169  and  _171
REMARK   57  A    between atoms: _171  and  _172
REMARK   58  A    between atoms: _171  and  _174
REMARK   59  A    between atoms: _174  and  _175
REMARK   60  A    between atoms: _176  and  FE_434
REMARK   61  A    between atoms: _180  and  _182
REMARK   62  A    between atoms: _182  and  _183
REMARK   63  A    between atoms: _182  and  _185
REMARK   64  A    between atoms: _185  and  _186
REMARK   65  A    between atoms: _186  and  _187
REMARK   66  A    between atoms: _187  and  _188
REMARK   67  A    between atoms: _197  and  _199
REMARK   68  A    between atoms: _199  and  _200
REMARK   69  A    between atoms: _199  and  _202
REMARK   70  A    between atoms: _202  and  _203
REMARK   71  A    between atoms: _208  and  _210
REMARK   72  A    between atoms: _210  and  _211
REMARK   73  A    between atoms: _210  and  _213
REMARK   74  A    between atoms: _213  and  _214
REMARK   75  A    between atoms: _214  and  _215
REMARK   76  A    between atoms: _218  and  _220
REMARK   77  A    between atoms: _220  and  _221
REMARK   78  A    between atoms: _220  and  _223
REMARK   79  A    between atoms: _223  and  _224
REMARK   80  A    between atoms: _230  and  _232
REMARK   81  A    between atoms: _232  and  _233
REMARK   82  A    between atoms: _232  and  _235
REMARK   83  A    between atoms: _235  and  _236
REMARK   84  A    between atoms: _236  and  _237
REMARK   85  A    between atoms: _239  and  _241
REMARK   86  A    between atoms: _241  and  _242
REMARK   87  A    between atoms: _241  and  _244
REMARK   88  A    between atoms: _244  and  _245
REMARK   89  A    between atoms: _250  and  _251
REMARK   90  A    between atoms: _253  and  _255
REMARK   91  A    between atoms: _255  and  _256
REMARK   92  A    between atoms: _255  and  _258
REMARK   93  A    between atoms: _258  and  _259
REMARK   94  A    between atoms: _262  and  _264
REMARK   95  A    between atoms: _264  and  _265
REMARK   96  A    between atoms: _268  and  _270
REMARK   97  A    between atoms: _270  and  _271
REMARK   98  A    between atoms: _270  and  _273
REMARK   99  A    between atoms: _273  and  _274
REMARK  100  A    between atoms: _274  and  _275
REMARK  101  A    between atoms: _275  and  _276
REMARK  102  A    between atoms: _276  and  _277
REMARK  103  A    between atoms: _281  and  _283
REMARK  104  A    between atoms: _283  and  _284
REMARK  105  A    between atoms: _283  and  _286
REMARK  106  A    between atoms: _286  and  _287
REMARK  107  A    between atoms: _293  and  _295
REMARK  108  A    between atoms: _295  and  _296
REMARK  109  A    between atoms: _295  and  _298
REMARK  110  A    between atoms: _298  and  _299
REMARK  111  A    between atoms: _301  and  _303
REMARK  112  A    between atoms: _303  and  _304
REMARK  113  A    between atoms: _303  and  _306
REMARK  114  A    between atoms: _306  and  _307
REMARK  115  A    between atoms: _312  and  _314
REMARK  116  A    between atoms: _314  and  _315
REMARK  117  A    between atoms: _314  and  _317
REMARK  118  A    between atoms: _317  and  _318
REMARK  119  A    between atoms: _322  and  FE_434
REMARK  120  A    between atoms: _323  and  _325
REMARK  121  A    between atoms: _325  and  _326
REMARK  122  A    between atoms: _329  and  _330
REMARK  123  A    between atoms: _335  and  _337
REMARK  124  A    between atoms: _337  and  _338
REMARK  125  A    between atoms: _337  and  _340
REMARK  126  A    between atoms: _340  and  _341
REMARK  127  A    between atoms: _344  and  _346
REMARK  128  A    between atoms: _346  and  _347
REMARK  129  A    between atoms: _346  and  _349
REMARK  130  A    between atoms: _349  and  _350
REMARK  131  A    between atoms: _356  and  _358
REMARK  132  A    between atoms: _358  and  _359
REMARK  133  A    between atoms: _358  and  _361
REMARK  134  A    between atoms: _361  and  _362
REMARK  135  A    between atoms: _362  and  _363
REMARK  136  A    between atoms: _365  and  _367
REMARK  137  A    between atoms: _367  and  _368
REMARK  138  A    between atoms: _367  and  _370
REMARK  139  A    between atoms: _370  and  _371
REMARK  140  A    between atoms: _371  and  _372
REMARK  141  A    between atoms: _375  and  _377
REMARK  142  A    between atoms: _377  and  _378
REMARK  143  A    between atoms: _377  and  _380
REMARK  144  A    between atoms: _380  and  _381
REMARK  145  A    between atoms: _386  and  _387
REMARK  146  A    between atoms: _389  and  _391
REMARK  147  A    between atoms: _391  and  _392
REMARK  148  A    between atoms: _391  and  _394
REMARK  149  A    between atoms: _394  and  _395
REMARK  150  A    between atoms: _405  and  _407
REMARK  151  A    between atoms: _407  and  _408
REMARK  152  A    between atoms: _407  and  _410
REMARK  153  A    between atoms: _410  and  _411
REMARK  154  A    between atoms: _414  and  _416
REMARK  155  A    between atoms: _416  and  _417
REMARK  156  A    between atoms: _416  and  _419
REMARK  157  A    between atoms: _419  and  _420
REMARK  158  A    between atoms: _422  and  _424
REMARK  159  A    between atoms: _424  and  _425
REMARK  160  A    between atoms: _424  and  _427
REMARK  161  A    between atoms: _427  and  _428
REMARK                            x       y       z     vdW  Elec       q    Type
REMARK                         _______ _______ _______ _____ _____    ______ ____
ROOT
ATOM      1  CA  SER A   1      15.375  53.330  -6.869  0.00  0.00    +0.163 C 
ENDROOT
BRANCH   1   2
ATOM      2  N   SER A   1      16.513  53.637  -6.011  0.00  0.00    -0.237 NA
ATOM      3  H   SER A   1      16.549  53.226  -5.057  0.00  0.00    +0.142 HD
ENDBRANCH   1   2
BRANCH   1   4
ATOM      4  CB  SER A   1      14.263  54.313  -6.567  0.00  0.00    +0.227 C 
ATOM      5  OG  SER A   1      13.558  54.177  -5.565  0.00  0.00    -0.287 OA
ENDBRANCH   1   4
BRANCH   1   6
ATOM      6  C   SER A   1      14.896  51.894  -6.637  0.00  0.00    +0.162 C 
BRANCH   6   7
ATOM      7  O   SER A   1      15.916  50.952  -6.961  0.00  0.00    -0.380 OA
ATOM      8  H   SER A   1      16.166  51.052  -7.914  0.00  0.00    +0.211 HD
ENDBRANCH   6   7
ENDBRANCH   1   6
TORSDOF 4
REMARK  Name = ../refined-set-2016/4aq6/4aq6_pocket.pdb
REMARK  161 active torsions:
REMARK  status: ('A' for Active; 'I' for Inactive)
REMARK    1  A    between atoms: _1  and  _3
REMARK    2  A    between atoms: _3  and  _4
REMARK    3  A    between atoms: _3  and  _6
REMARK    4  A    between atoms: _6  and  _7
REMARK    5  A    between atoms: _13  and  _14
REMARK    6  A    between atoms: _19  and  _21
REMARK    7  A    between atoms: _21  and  _22
REMARK    8  A    between atoms: _21  and  _24
REMARK    9  A    between atoms: _24  and  _25
REMARK   10  A    between atoms: _29  and  _30
REMARK   11  A    between atoms: _35  and  _37
REMARK   12  A    between atoms: _37  and  _38
REMARK   13  A    between atoms: _37  and  _40
REMARK   14  A    between atoms: _40  and  _41
REMARK   15  A    between atoms: _43  and  _45
REMARK   16  A    between atoms: _45  and  _46
REMARK   17  A    between atoms: _45  and  _48
REMARK   18  A    between atoms: _48  and  _49
REMARK   19  A    between atoms: _52  and  _54
REMARK   20  A    between atoms: _54  and  _55
REMARK   21  A    between atoms: _54  and  _57
REMARK   22  A    between atoms: _57  and  _58
REMARK   23  A    between atoms: _64  and  _66
REMARK   24  A    between atoms: _66  and  _67
REMARK   25  A    between atoms: _66  and  _69
REMARK   26  A    between atoms: _72  and  _74
REMARK   27  A    between atoms: _74  and  _75
REMARK   28  A    between atoms: _74  and  _77
REMARK   29  A    between atoms: _77  and  _78
REMARK   30  A    between atoms: _81  and  _83
REMARK   31  A    between atoms: _83  and  _84
REMARK   32  A    between atoms: _83  and  _86
REMARK   33  A    between atoms: _86  and  _87
REMARK   34  A    between atoms: _93  and  _95
REMARK   35  A    between atoms: _95  and  _96
REMARK   36  A    between atoms: _95  and  _98
REMARK   37  A    between atoms: _98  and  _99
REMARK   38  A    between atoms: _99  and  _100
REMARK   39  A    between atoms: _100  and  _101
REMARK   40  A    between atoms: _110  and  _112
REMARK   41  A    between atoms: _112  and  _113
REMARK   42  A    between atoms: _112  and  _115
REMARK   43  A    between atoms: _115  and  _116
REMARK   44  A    between atoms: _116  and  _117
REMARK   45  A    between atoms: _117  and  _118
REMARK   46  A    between atoms: _128  and  _129
REMARK   47  A    between atoms: _135  and  _136
REMARK   48  A    between atoms: _141  and  _143
REMARK   49  A    between atoms: _143  and  _144
REMARK   50  A    between atoms: _143  and  _146
REMARK   51  A    between atoms: _146  and  _147
REMARK   52  A    between atoms: _157  and  _159
REMARK   53  A    between atoms: _159  and  _160
REMARK   54  A    between atoms: _159  and  _162
REMARK   55  A    between atoms: _162  and  _163
REMARK   56  A    between atoms: _169  and  _171
REMARK   57  A    between atoms: _171  and  _172
REMARK   58  A    between atoms: _171  and  _174
REMARK   59  A    between atoms: _174  and  _175
REMARK   60  A    between atoms: _176  and  FE_434
REMARK   61  A    between atoms: _180  and  _182
REMARK   62  A    between atoms: _182  and  _183
REMARK   63  A    between atoms: _182  and  _185
REMARK   64  A    between atoms: _185  and  _186
REMARK   65  A    between atoms: _186  and  _187
REMARK   66  A    between atoms: _187  and  _188
REMARK   67  A    between atoms: _197  and  _199
REMARK   68  A    between atoms: _199  and  _200
REMARK   69  A    between atoms: _199  and  _202
REMARK   70  A    between atoms: _202  and  _203
REMARK   71  A    between atoms: _208  and  _210
REMARK   72  A    between atoms: _210  and  _211
REMARK   73  A    between atoms: _210  and  _213
REMARK   74  A    between atoms: _213  and  _214
REMARK   75  A    between atoms: _214  and  _215
REMARK   76  A    between atoms: _218  and  _220
REMARK   77  A    between atoms: _220  and  _221
REMARK   78  A    between atoms: _220  and  _223
REMARK   79  A    between atoms: _223  and  _224
REMARK   80  A    between atoms: _230  and  _232
REMARK   81  A    between atoms: _232  and  _233
REMARK   82  A    between atoms: _232  and  _235
REMARK   83  A    between atoms: _235  and  _236
REMARK   84  A    between atoms: _236  and  _237
REMARK   85  A    between atoms: _239  and  _241
REMARK   86  A    between atoms: _241  and  _242
REMARK   87  A    between atoms: _241  and  _244
REMARK   88  A    between atoms: _244  and  _245
REMARK   89  A    between atoms: _250  and  _251
REMARK   90  A    between atoms: _253  and  _255
REMARK   91  A    between atoms: _255  and  _256
REMARK   92  A    between atoms: _255  and  _258
REMARK   93  A    between atoms: _258  and  _259
REMARK   94  A    between atoms: _262  and  _264
REMARK   95  A    between atoms: _264  and  _265
REMARK   96  A    between atoms: _268  and  _270
REMARK   97  A    between atoms: _270  and  _271
REMARK   98  A    between atoms: _270  and  _273
REMARK   99  A    between atoms: _273  and  _274
REMARK  100  A    between atoms: _274  and  _275
REMARK  101  A    between atoms: _275  and  _276
REMARK  102  A    between atoms: _276  and  _277
REMARK  103  A    between atoms: _281  and  _283
REMARK  104  A    between atoms: _283  and  _284
REMARK  105  A    between atoms: _283  and  _286
REMARK  106  A    between atoms: _286  and  _287
REMARK  107  A    between atoms: _293  and  _295
REMARK  108  A    between atoms: _295  and  _296
REMARK  109  A    between atoms: _295  and  _298
REMARK  110  A    between atoms: _298  and  _299
REMARK  111  A    between atoms: _301  and  _303
REMARK  112  A    between atoms: _303  and  _304
REMARK  113  A    between atoms: _303  and  _306
REMARK  114  A    between atoms: _306  and  _307
REMARK  115  A    between atoms: _312  and  _314
REMARK  116  A    between atoms: _314  and  _315
REMARK  117  A    between atoms: _314  and  _317
REMARK  118  A    between atoms: _317  and  _318
REMARK  119  A    between atoms: _322  and  FE_434
REMARK  120  A    between atoms: _323  and  _325
REMARK  121  A    between atoms: _325  and  _326
REMARK  122  A    between atoms: _329  and  _330
REMARK  123  A    between atoms: _335  and  _337
REMARK  124  A    between atoms: _337  and  _338
REMARK  125  A    between atoms: _337  and  _340
REMARK  126  A    between atoms: _340  and  _341
REMARK  127  A    between atoms: _344  and  _346
REMARK  128  A    between atoms: _346  and  _347
REMARK  129  A    between atoms: _346  and  _349
REMARK  130  A    between atoms: _349  and  _350
REMARK  131  A    between atoms: _356  and  _358
REMARK  132  A    between atoms: _358  and  _359
REMARK  133  A    between atoms: _358  and  _361
REMARK  134  A    between atoms: _361  and  _362
REMARK  135  A    between atoms: _362  and  _363
REMARK  136  A    between atoms: _365  and  _367
REMARK  137  A    between atoms: _367  and  _368
REMARK  138  A    between atoms: _367  and  _370
REMARK  139  A    between atoms: _370  and  _371
REMARK  140  A    between atoms: _371  and  _372
REMARK  141  A    between atoms: _375  and  _377
REMARK  142  A    between atoms: _377  and  _378
REMARK  143  A    between atoms: _377  and  _380
REMARK  144  A    between atoms: _380  and  _381
REMARK  145  A    between atoms: _386  and  _387
REMARK  146  A    between atoms: _389  and  _391
REMARK  147  A    between atoms: _391  and  _392
REMARK  148  A    between atoms: _391  and  _394
REMARK  149  A    between atoms: _394  and  _395
REMARK  150  A    between atoms: _405  and  _407
REMARK  151  A    between atoms: _407  and  _408
REMARK  152  A    between atoms: _407  and  _410
REMARK  153  A    between atoms: _410  and  _411
REMARK  154  A    between atoms: _414  and  _416
REMARK  155  A    between atoms: _416  and  _417
REMARK  156  A    between atoms: _416  and  _419
REMARK  157  A    between atoms: _419  and  _420
REMARK  158  A    between atoms: _422  and  _424
REMARK  159  A    between atoms: _424  and  _425
REMARK  160  A    between atoms: _424  and  _427
REMARK  161  A    between atoms: _427  and  _428
REMARK                            x       y       z     vdW  Elec       q    Type
REMARK                         _______ _______ _______ _____ _____    ______ ____
ROOT
ATOM      1  CB  PHE A   1      12.287  47.037 -10.423  0.00  0.00    +0.051 C 
ENDROOT
BRANCH   1   2
ATOM      2  CG  PHE A   1      13.201  47.017  -9.249  0.00  0.00    -0.020 A 
ATOM      3  CD2 PHE A   1      12.944  46.171  -8.179  0.00  0.00    -0.004 A 
ATOM      4  CE2 PHE A   1      13.787  46.129  -7.083  0.00  0.00    -0.000 A 
ATOM      5  CZ  PHE A   1      14.917  46.938  -7.050  0.00  0.00    -0.000 A 
ATOM      6  CE1 PHE A   1      15.185  47.794  -8.115  0.00  0.00    -0.000 A 
ATOM      7  CD1 PHE A   1      14.328  47.833  -9.207  0.00  0.00    -0.004 A 
ENDBRANCH   1   2
BRANCH   1   8
ATOM      8  CA  PHE A   1      11.785  48.429 -10.810  0.00  0.00    +0.137 C 
BRANCH   8   9
ATOM      9  N   PHE A   1      10.853  48.936  -9.800  0.00  0.00    -0.239 NA
ATOM     10  H   PHE A   1      10.706  48.391  -8.927  0.00  0.00    +0.142 HD
ENDBRANCH   8   9
BRANCH   8  11
ATOM     11  C   PHE A   1      11.131  48.300 -12.172  0.00  0.00    +0.224 C 
ATOM     12  O   PHE A   1      11.791  48.454 -13.205  0.00  0.00    -0.287 OA
ENDBRANCH   8  11
ENDBRANCH   1   8
TORSDOF 4
REMARK  Name = ../refined-set-2016/4aq6/4aq6_pocket.pdb
REMARK  161 active torsions:
REMARK  status: ('A' for Active; 'I' for Inactive)
REMARK    1  A    between atoms: _1  and  _3
REMARK    2  A    between atoms: _3  and  _4
REMARK    3  A    between atoms: _3  and  _6
REMARK    4  A    between atoms: _6  and  _7
REMARK    5  A    between atoms: _13  and  _14
REMARK    6  A    between atoms: _19  and  _21
REMARK    7  A    between atoms: _21  and  _22
REMARK    8  A    between atoms: _21  and  _24
REMARK    9  A    between atoms: _24  and  _25
REMARK   10  A    between atoms: _29  and  _30
REMARK   11  A    between atoms: _35  and  _37
REMARK   12  A    between atoms: _37  and  _38
REMARK   13  A    between atoms: _37  and  _40
REMARK   14  A    between atoms: _40  and  _41
REMARK   15  A    between atoms: _43  and  _45
REMARK   16  A    between atoms: _45  and  _46
REMARK   17  A    between atoms: _45  and  _48
REMARK   18  A    between atoms: _48  and  _49
REMARK   19  A    between atoms: _52  and  _54
REMARK   20  A    between atoms: _54  and  _55
REMARK   21  A    between atoms: _54  and  _57
REMARK   22  A    between atoms: _57  and  _58
REMARK   23  A    between atoms: _64  and  _66
REMARK   24  A    between atoms: _66  and  _67
REMARK   25  A    between atoms: _66  and  _69
REMARK   26  A    between atoms: _72  and  _74
REMARK   27  A    between atoms: _74  and  _75
REMARK   28  A    between atoms: _74  and  _77
REMARK   29  A    between atoms: _77  and  _78
REMARK   30  A    between atoms: _81  and  _83
REMARK   31  A    between atoms: _83  and  _84
REMARK   32  A    between atoms: _83  and  _86
REMARK   33  A    between atoms: _86  and  _87
REMARK   34  A    between atoms: _93  and  _95
REMARK   35  A    between atoms: _95  and  _96
REMARK   36  A    between atoms: _95  and  _98
REMARK   37  A    between atoms: _98  and  _99
REMARK   38  A    between atoms: _99  and  _100
REMARK   39  A    between atoms: _100  and  _101
REMARK   40  A    between atoms: _110  and  _112
REMARK   41  A    between atoms: _112  and  _113
REMARK   42  A    between atoms: _112  and  _115
REMARK   43  A    between atoms: _115  and  _116
REMARK   44  A    between atoms: _116  and  _117
REMARK   45  A    between atoms: _117  and  _118
REMARK   46  A    between atoms: _128  and  _129
REMARK   47  A    between atoms: _135  and  _136
REMARK   48  A    between atoms: _141  and  _143
REMARK   49  A    between atoms: _143  and  _144
REMARK   50  A    between atoms: _143  and  _146
REMARK   51  A    between atoms: _146  and  _147
REMARK   52  A    between atoms: _157  and  _159
REMARK   53  A    between atoms: _159  and  _160
REMARK   54  A    between atoms: _159  and  _162
REMARK   55  A    between atoms: _162  and  _163
REMARK   56  A    between atoms: _169  and  _171
REMARK   57  A    between atoms: _171  and  _172
REMARK   58  A    between atoms: _171  and  _174
REMARK   59  A    between atoms: _174  and  _175
REMARK   60  A    between atoms: _176  and  FE_434
REMARK   61  A    between atoms: _180  and  _182
REMARK   62  A    between atoms: _182  and  _183
REMARK   63  A    between atoms: _182  and  _185
REMARK   64  A    between atoms: _185  and  _186
REMARK   65  A    between atoms: _186  and  _187
REMARK   66  A    between atoms: _187  and  _188
REMARK   67  A    between atoms: _197  and  _199
REMARK   68  A    between atoms: _199  and  _200
REMARK   69  A    between atoms: _199  and  _202
REMARK   70  A    between atoms: _202  and  _203
REMARK   71  A    between atoms: _208  and  _210
REMARK   72  A    between atoms: _210  and  _211
REMARK   73  A    between atoms: _210  and  _213
REMARK   74  A    between atoms: _213  and  _214
REMARK   75  A    between atoms: _214  and  _215
REMARK   76  A    between atoms: _218  and  _220
REMARK   77  A    between atoms: _220  and  _221
REMARK   78  A    between atoms: _220  and  _223
REMARK   79  A    between atoms: _223  and  _224
REMARK   80  A    between atoms: _230  and  _232
REMARK   81  A    between atoms: _232  and  _233
REMARK   82  A    between atoms: _232  and  _235
REMARK   83  A    between atoms: _235  and  _236
REMARK   84  A    between atoms: _236  and  _237
REMARK   85  A    between atoms: _239  and  _241
REMARK   86  A    between atoms: _241  and  _242
REMARK   87  A    between atoms: _241  and  _244
REMARK   88  A    between atoms: _244  and  _245
REMARK   89  A    between atoms: _250  and  _251
REMARK   90  A    between atoms: _253  and  _255
REMARK   91  A    between atoms: _255  and  _256
REMARK   92  A    between atoms: _255  and  _258
REMARK   93  A    between atoms: _258  and  _259
REMARK   94  A    between atoms: _262  and  _264
REMARK   95  A    between atoms: _264  and  _265
REMARK   96  A    between atoms: _268  and  _270
REMARK   97  A    between atoms: _270  and  _271
REMARK   98  A    between atoms: _270  and  _273
REMARK   99  A    between atoms: _273  and  _274
REMARK  100  A    between atoms: _274  and  _275
REMARK  101  A    between atoms: _275  and  _276
REMARK  102  A    between atoms: _276  and  _277
REMARK  103  A    between atoms: _281  and  _283
REMARK  104  A    between atoms: _283  and  _284
REMARK  105  A    between atoms: _283  and  _286
REMARK  106  A    between atoms: _286  and  _287
REMARK  107  A    between atoms: _293  and  _295
REMARK  108  A    between atoms: _295  and  _296
REMARK  109  A    between atoms: _295  and  _298
REMARK  110  A    between atoms: _298  and  _299
REMARK  111  A    between atoms: _301  and  _303
REMARK  112  A    between atoms: _303  and  _304
REMARK  113  A    between atoms: _303  and  _306
REMARK  114  A    between atoms: _306  and  _307
REMARK  115  A    between atoms: _312  and  _314
REMARK  116  A    between atoms: _314  and  _315
REMARK  117  A    between atoms: _314  and  _317
REMARK  118  A    between atoms: _317  and  _318
REMARK  119  A    between atoms: _322  and  FE_434
REMARK  120  A    between atoms: _323  and  _325
REMARK  121  A    between atoms: _325  and  _326
REMARK  122  A    between atoms: _329  and  _330
REMARK  123  A    between atoms: _335  and  _337
REMARK  124  A    between atoms: _337  and  _338
REMARK  125  A    between atoms: _337  and  _340
REMARK  126  A    between atoms: _340  and  _341
REMARK  127  A    between atoms: _344  and  _346
REMARK  128  A    between atoms: _346  and  _347
REMARK  129  A    between atoms: _346  and  _349
REMARK  130  A    between atoms: _349  and  _350
REMARK  131  A    between atoms: _356  and  _358
REMARK  132  A    between atoms: _358  and  _359
REMARK  133  A    between atoms: _358  and  _361
REMARK  134  A    between atoms: _361  and  _362
REMARK  135  A    between atoms: _362  and  _363
REMARK  136  A    between atoms: _365  and  _367
REMARK  137  A    between atoms: _367  and  _368
REMARK  138  A    between atoms: _367  and  _370
REMARK  139  A    between atoms: _370  and  _371
REMARK  140  A    between atoms: _371  and  _372
REMARK  141  A    between atoms: _375  and  _377
REMARK  142  A    between atoms: _377  and  _378
REMARK  143  A    between atoms: _377  and  _380
REMARK  144  A    between atoms: _380  and  _381
REMARK  145  A    between atoms: _386  and  _387
REMARK  146  A    between atoms: _389  and  _391
REMARK  147  A    between atoms: _391  and  _392
REMARK  148  A    between atoms: _391  and  _394
REMARK  149  A    between atoms: _394  and  _395
REMARK  150  A    between atoms: _405  and  _407
REMARK  151  A    between atoms: _407  and  _408
REMARK  152  A    between atoms: _407  and  _410
REMARK  153  A    between atoms: _410  and  _411
REMARK  154  A    between atoms: _414  and  _416
REMARK  155  A    between atoms: _416  and  _417
REMARK  156  A    between atoms: _416  and  _419
REMARK  157  A    between atoms: _419  and  _420
REMARK  158  A    between atoms: _422  and  _424
REMARK  159  A    between atoms: _424  and  _425
REMARK  160  A    between atoms: _424  and  _427
REMARK  161  A    between atoms: _427  and  _428
REMARK                            x       y       z     vdW  Elec       q    Type
REMARK                         _______ _______ _______ _____ _____    ______ ____
ROOT
ATOM      1  O   HOH     1      17.798  40.641   7.578  0.00  0.00    +0.000 OA
ENDROOT
TORSDOF 0
REMARK  Name = ../refined-set-2016/4aq6/4aq6_pocket.pdb
REMARK  161 active torsions:
REMARK  status: ('A' for Active; 'I' for Inactive)
REMARK    1  A    between atoms: _1  and  _3
REMARK    2  A    between atoms: _3  and  _4
REMARK    3  A    between atoms: _3  and  _6
REMARK    4  A    between atoms: _6  and  _7
REMARK    5  A    between atoms: _13  and  _14
REMARK    6  A    between atoms: _19  and  _21
REMARK    7  A    between atoms: _21  and  _22
REMARK    8  A    between atoms: _21  and  _24
REMARK    9  A    between atoms: _24  and  _25
REMARK   10  A    between atoms: _29  and  _30
REMARK   11  A    between atoms: _35  and  _37
REMARK   12  A    between atoms: _37  and  _38
REMARK   13  A    between atoms: _37  and  _40
REMARK   14  A    between atoms: _40  and  _41
REMARK   15  A    between atoms: _43  and  _45
REMARK   16  A    between atoms: _45  and  _46
REMARK   17  A    between atoms: _45  and  _48
REMARK   18  A    between atoms: _48  and  _49
REMARK   19  A    between atoms: _52  and  _54
REMARK   20  A    between atoms: _54  and  _55
REMARK   21  A    between atoms: _54  and  _57
REMARK   22  A    between atoms: _57  and  _58
REMARK   23  A    between atoms: _64  and  _66
REMARK   24  A    between atoms: _66  and  _67
REMARK   25  A    between atoms: _66  and  _69
REMARK   26  A    between atoms: _72  and  _74
REMARK   27  A    between atoms: _74  and  _75
REMARK   28  A    between atoms: _74  and  _77
REMARK   29  A    between atoms: _77  and  _78
REMARK   30  A    between atoms: _81  and  _83
REMARK   31  A    between atoms: _83  and  _84
REMARK   32  A    between atoms: _83  and  _86
REMARK   33  A    between atoms: _86  and  _87
REMARK   34  A    between atoms: _93  and  _95
REMARK   35  A    between atoms: _95  and  _96
REMARK   36  A    between atoms: _95  and  _98
REMARK   37  A    between atoms: _98  and  _99
REMARK   38  A    between atoms: _99  and  _100
REMARK   39  A    between atoms: _100  and  _101
REMARK   40  A    between atoms: _110  and  _112
REMARK   41  A    between atoms: _112  and  _113
REMARK   42  A    between atoms: _112  and  _115
REMARK   43  A    between atoms: _115  and  _116
REMARK   44  A    between atoms: _116  and  _117
REMARK   45  A    between atoms: _117  and  _118
REMARK   46  A    between atoms: _128  and  _129
REMARK   47  A    between atoms: _135  and  _136
REMARK   48  A    between atoms: _141  and  _143
REMARK   49  A    between atoms: _143  and  _144
REMARK   50  A    between atoms: _143  and  _146
REMARK   51  A    between atoms: _146  and  _147
REMARK   52  A    between atoms: _157  and  _159
REMARK   53  A    between atoms: _159  and  _160
REMARK   54  A    between atoms: _159  and  _162
REMARK   55  A    between atoms: _162  and  _163
REMARK   56  A    between atoms: _169  and  _171
REMARK   57  A    between atoms: _171  and  _172
REMARK   58  A    between atoms: _171  and  _174
REMARK   59  A    between atoms: _174  and  _175
REMARK   60  A    between atoms: _176  and  FE_434
REMARK   61  A    between atoms: _180  and  _182
REMARK   62  A    between atoms: _182  and  _183
REMARK   63  A    between atoms: _182  and  _185
REMARK   64  A    between atoms: _185  and  _186
REMARK   65  A    between atoms: _186  and  _187
REMARK   66  A    between atoms: _187  and  _188
REMARK   67  A    between atoms: _197  and  _199
REMARK   68  A    between atoms: _199  and  _200
REMARK   69  A    between atoms: _199  and  _202
REMARK   70  A    between atoms: _202  and  _203
REMARK   71  A    between atoms: _208  and  _210
REMARK   72  A    between atoms: _210  and  _211
REMARK   73  A    between atoms: _210  and  _213
REMARK   74  A    between atoms: _213  and  _214
REMARK   75  A    between atoms: _214  and  _215
REMARK   76  A    between atoms: _218  and  _220
REMARK   77  A    between atoms: _220  and  _221
REMARK   78  A    between atoms: _220  and  _223
REMARK   79  A    between atoms: _223  and  _224
REMARK   80  A    between atoms: _230  and  _232
REMARK   81  A    between atoms: _232  and  _233
REMARK   82  A    between atoms: _232  and  _235
REMARK   83  A    between atoms: _235  and  _236
REMARK   84  A    between atoms: _236  and  _237
REMARK   85  A    between atoms: _239  and  _241
REMARK   86  A    between atoms: _241  and  _242
REMARK   87  A    between atoms: _241  and  _244
REMARK   88  A    between atoms: _244  and  _245
REMARK   89  A    between atoms: _250  and  _251
REMARK   90  A    between atoms: _253  and  _255
REMARK   91  A    between atoms: _255  and  _256
REMARK   92  A    between atoms: _255  and  _258
REMARK   93  A    between atoms: _258  and  _259
REMARK   94  A    between atoms: _262  and  _264
REMARK   95  A    between atoms: _264  and  _265
REMARK   96  A    between atoms: _268  and  _270
REMARK   97  A    between atoms: _270  and  _271
REMARK   98  A    between atoms: _270  and  _273
REMARK   99  A    between atoms: _273  and  _274
REMARK  100  A    between atoms: _274  and  _275
REMARK  101  A    between atoms: _275  and  _276
REMARK  102  A    between atoms: _276  and  _277
REMARK  103  A    between atoms: _281  and  _283
REMARK  104  A    between atoms: _283  and  _284
REMARK  105  A    between atoms: _283  and  _286
REMARK  106  A    between atoms: _286  and  _287
REMARK  107  A    between atoms: _293  and  _295
REMARK  108  A    between atoms: _295  and  _296
REMARK  109  A    between atoms: _295  and  _298
REMARK  110  A    between atoms: _298  and  _299
REMARK  111  A    between atoms: _301  and  _303
REMARK  112  A    between atoms: _303  and  _304
REMARK  113  A    between atoms: _303  and  _306
REMARK  114  A    between atoms: _306  and  _307
REMARK  115  A    between atoms: _312  and  _314
REMARK  116  A    between atoms: _314  and  _315
REMARK  117  A    between atoms: _314  and  _317
REMARK  118  A    between atoms: _317  and  _318
REMARK  119  A    between atoms: _322  and  FE_434
REMARK  120  A    between atoms: _323  and  _325
REMARK  121  A    between atoms: _325  and  _326
REMARK  122  A    between atoms: _329  and  _330
REMARK  123  A    between atoms: _335  and  _337
REMARK  124  A    between atoms: _337  and  _338
REMARK  125  A    between atoms: _337  and  _340
REMARK  126  A    between atoms: _340  and  _341
REMARK  127  A    between atoms: _344  and  _346
REMARK  128  A    between atoms: _346  and  _347
REMARK  129  A    between atoms: _346  and  _349
REMARK  130  A    between atoms: _349  and  _350
REMARK  131  A    between atoms: _356  and  _358
REMARK  132  A    between atoms: _358  and  _359
REMARK  133  A    between atoms: _358  and  _361
REMARK  134  A    between atoms: _361  and  _362
REMARK  135  A    between atoms: _362  and  _363
REMARK  136  A    between atoms: _365  and  _367
REMARK  137  A    between atoms: _367  and  _368
REMARK  138  A    between atoms: _367  and  _370
REMARK  139  A    between atoms: _370  and  _371
REMARK  140  A    between atoms: _371  and  _372
REMARK  141  A    between atoms: _375  and  _377
REMARK  142  A    between atoms: _377  and  _378
REMARK  143  A    between atoms: _377  and  _380
REMARK  144  A    between atoms: _380  and  _381
REMARK  145  A    between atoms: _386  and  _387
REMARK  146  A    between atoms: _389  and  _391
REMARK  147  A    between atoms: _391  and  _392
REMARK  148  A    between atoms: _391  and  _394
REMARK  149  A    between atoms: _394  and  _395
REMARK  150  A    between atoms: _405  and  _407
REMARK  151  A    between atoms: _407  and  _408
REMARK  152  A    between atoms: _407  and  _410
REMARK  153  A    between atoms: _410  and  _411
REMARK  154  A    between atoms: _414  and  _416
REMARK  155  A    between atoms: _416  and  _417
REMARK  156  A    between atoms: _416  and  _419
REMARK  157  A    between atoms: _419  and  _420
REMARK  158  A    between atoms: _422  and  _424
REMARK  159  A    between atoms: _424  and  _425
REMARK  160  A    between atoms: _424  and  _427
REMARK  161  A    between atoms: _427  and  _428
REMARK                            x       y       z     vdW  Elec       q    Type
REMARK                         _______ _______ _______ _____ _____    ______ ____
ROOT
ATOM      1  O   HOH     1      19.050  37.351 -10.749  0.00  0.00    +0.000 OA
ENDROOT
TORSDOF 0
REMARK  Name = ../refined-set-2016/4aq6/4aq6_pocket.pdb
REMARK  161 active torsions:
REMARK  status: ('A' for Active; 'I' for Inactive)
REMARK    1  A    between atoms: _1  and  _3
REMARK    2  A    between atoms: _3  and  _4
REMARK    3  A    between atoms: _3  and  _6
REMARK    4  A    between atoms: _6  and  _7
REMARK    5  A    between atoms: _13  and  _14
REMARK    6  A    between atoms: _19  and  _21
REMARK    7  A    between atoms: _21  and  _22
REMARK    8  A    between atoms: _21  and  _24
REMARK    9  A    between atoms: _24  and  _25
REMARK   10  A    between atoms: _29  and  _30
REMARK   11  A    between atoms: _35  and  _37
REMARK   12  A    between atoms: _37  and  _38
REMARK   13  A    between atoms: _37  and  _40
REMARK   14  A    between atoms: _40  and  _41
REMARK   15  A    between atoms: _43  and  _45
REMARK   16  A    between atoms: _45  and  _46
REMARK   17  A    between atoms: _45  and  _48
REMARK   18  A    between atoms: _48  and  _49
REMARK   19  A    between atoms: _52  and  _54
REMARK   20  A    between atoms: _54  and  _55
REMARK   21  A    between atoms: _54  and  _57
REMARK   22  A    between atoms: _57  and  _58
REMARK   23  A    between atoms: _64  and  _66
REMARK   24  A    between atoms: _66  and  _67
REMARK   25  A    between atoms: _66  and  _69
REMARK   26  A    between atoms: _72  and  _74
REMARK   27  A    between atoms: _74  and  _75
REMARK   28  A    between atoms: _74  and  _77
REMARK   29  A    between atoms: _77  and  _78
REMARK   30  A    between atoms: _81  and  _83
REMARK   31  A    between atoms: _83  and  _84
REMARK   32  A    between atoms: _83  and  _86
REMARK   33  A    between atoms: _86  and  _87
REMARK   34  A    between atoms: _93  and  _95
REMARK   35  A    between atoms: _95  and  _96
REMARK   36  A    between atoms: _95  and  _98
REMARK   37  A    between atoms: _98  and  _99
REMARK   38  A    between atoms: _99  and  _100
REMARK   39  A    between atoms: _100  and  _101
REMARK   40  A    between atoms: _110  and  _112
REMARK   41  A    between atoms: _112  and  _113
REMARK   42  A    between atoms: _112  and  _115
REMARK   43  A    between atoms: _115  and  _116
REMARK   44  A    between atoms: _116  and  _117
REMARK   45  A    between atoms: _117  and  _118
REMARK   46  A    between atoms: _128  and  _129
REMARK   47  A    between atoms: _135  and  _136
REMARK   48  A    between atoms: _141  and  _143
REMARK   49  A    between atoms: _143  and  _144
REMARK   50  A    between atoms: _143  and  _146
REMARK   51  A    between atoms: _146  and  _147
REMARK   52  A    between atoms: _157  and  _159
REMARK   53  A    between atoms: _159  and  _160
REMARK   54  A    between atoms: _159  and  _162
REMARK   55  A    between atoms: _162  and  _163
REMARK   56  A    between atoms: _169  and  _171
REMARK   57  A    between atoms: _171  and  _172
REMARK   58  A    between atoms: _171  and  _174
REMARK   59  A    between atoms: _174  and  _175
REMARK   60  A    between atoms: _176  and  FE_434
REMARK   61  A    between atoms: _180  and  _182
REMARK   62  A    between atoms: _182  and  _183
REMARK   63  A    between atoms: _182  and  _185
REMARK   64  A    between atoms: _185  and  _186
REMARK   65  A    between atoms: _186  and  _187
REMARK   66  A    between atoms: _187  and  _188
REMARK   67  A    between atoms: _197  and  _199
REMARK   68  A    between atoms: _199  and  _200
REMARK   69  A    between atoms: _199  and  _202
REMARK   70  A    between atoms: _202  and  _203
REMARK   71  A    between atoms: _208  and  _210
REMARK   72  A    between atoms: _210  and  _211
REMARK   73  A    between atoms: _210  and  _213
REMARK   74  A    between atoms: _213  and  _214
REMARK   75  A    between atoms: _214  and  _215
REMARK   76  A    between atoms: _218  and  _220
REMARK   77  A    between atoms: _220  and  _221
REMARK   78  A    between atoms: _220  and  _223
REMARK   79  A    between atoms: _223  and  _224
REMARK   80  A    between atoms: _230  and  _232
REMARK   81  A    between atoms: _232  and  _233
REMARK   82  A    between atoms: _232  and  _235
REMARK   83  A    between atoms: _235  and  _236
REMARK   84  A    between atoms: _236  and  _237
REMARK   85  A    between atoms: _239  and  _241
REMARK   86  A    between atoms: _241  and  _242
REMARK   87  A    between atoms: _241  and  _244
REMARK   88  A    between atoms: _244  and  _245
REMARK   89  A    between atoms: _250  and  _251
REMARK   90  A    between atoms: _253  and  _255
REMARK   91  A    between atoms: _255  and  _256
REMARK   92  A    between atoms: _255  and  _258
REMARK   93  A    between atoms: _258  and  _259
REMARK   94  A    between atoms: _262  and  _264
REMARK   95  A    between atoms: _264  and  _265
REMARK   96  A    between atoms: _268  and  _270
REMARK   97  A    between atoms: _270  and  _271
REMARK   98  A    between atoms: _270  and  _273
REMARK   99  A    between atoms: _273  and  _274
REMARK  100  A    between atoms: _274  and  _275
REMARK  101  A    between atoms: _275  and  _276
REMARK  102  A    between atoms: _276  and  _277
REMARK  103  A    between atoms: _281  and  _283
REMARK  104  A    between atoms: _283  and  _284
REMARK  105  A    between atoms: _283  and  _286
REMARK  106  A    between atoms: _286  and  _287
REMARK  107  A    between atoms: _293  and  _295
REMARK  108  A    between atoms: _295  and  _296
REMARK  109  A    between atoms: _295  and  _298
REMARK  110  A    between atoms: _298  and  _299
REMARK  111  A    between atoms: _301  and  _303
REMARK  112  A    between atoms: _303  and  _304
REMARK  113  A    between atoms: _303  and  _306
REMARK  114  A    between atoms: _306  and  _307
REMARK  115  A    between atoms: _312  and  _314
REMARK  116  A    between atoms: _314  and  _315
REMARK  117  A    between atoms: _314  and  _317
REMARK  118  A    between atoms: _317  and  _318
REMARK  119  A    between atoms: _322  and  FE_434
REMARK  120  A    between atoms: _323  and  _325
REMARK  121  A    between atoms: _325  and  _326
REMARK  122  A    between atoms: _329  and  _330
REMARK  123  A    between atoms: _335  and  _337
REMARK  124  A    between atoms: _337  and  _338
REMARK  125  A    between atoms: _337  and  _340
REMARK  126  A    between atoms: _340  and  _341
REMARK  127  A    between atoms: _344  and  _346
REMARK  128  A    between atoms: _346  and  _347
REMARK  129  A    between atoms: _346  and  _349
REMARK  130  A    between atoms: _349  and  _350
REMARK  131  A    between atoms: _356  and  _358
REMARK  132  A    between atoms: _358  and  _359
REMARK  133  A    between atoms: _358  and  _361
REMARK  134  A    between atoms: _361  and  _362
REMARK  135  A    between atoms: _362  and  _363
REMARK  136  A    between atoms: _365  and  _367
REMARK  137  A    between atoms: _367  and  _368
REMARK  138  A    between atoms: _367  and  _370
REMARK  139  A    between atoms: _370  and  _371
REMARK  140  A    between atoms: _371  and  _372
REMARK  141  A    between atoms: _375  and  _377
REMARK  142  A    between atoms: _377  and  _378
REMARK  143  A    between atoms: _377  and  _380
REMARK  144  A    between atoms: _380  and  _381
REMARK  145  A    between atoms: _386  and  _387
REMARK  146  A    between atoms: _389  and  _391
REMARK  147  A    between atoms: _391  and  _392
REMARK  148  A    between atoms: _391  and  _394
REMARK  149  A    between atoms: _394  and  _395
REMARK  150  A    between atoms: _405  and  _407
REMARK  151  A    between atoms: _407  and  _408
REMARK  152  A    between atoms: _407  and  _410
REMARK  153  A    between atoms: _410  and  _411
REMARK  154  A    between atoms: _414  and  _416
REMARK  155  A    between atoms: _416  and  _417
REMARK  156  A    between atoms: _416  and  _419
REMARK  157  A    between atoms: _419  and  _420
REMARK  158  A    between atoms: _422  and  _424
REMARK  159  A    between atoms: _424  and  _425
REMARK  160  A    between atoms: _424  and  _427
REMARK  161  A    between atoms: _427  and  _428
REMARK                            x       y       z     vdW  Elec       q    Type
REMARK                         _______ _______ _______ _____ _____    ______ ____
ROOT
ATOM      1  O   HOH     1      20.704  45.112 -11.666  0.00  0.00    +0.000 OA
ENDROOT
TORSDOF 0
REMARK  Name = ../refined-set-2016/4aq6/4aq6_pocket.pdb
REMARK  161 active torsions:
REMARK  status: ('A' for Active; 'I' for Inactive)
REMARK    1  A    between atoms: _1  and  _3
REMARK    2  A    between atoms: _3  and  _4
REMARK    3  A    between atoms: _3  and  _6
REMARK    4  A    between atoms: _6  and  _7
REMARK    5  A    between atoms: _13  and  _14
REMARK    6  A    between atoms: _19  and  _21
REMARK    7  A    between atoms: _21  and  _22
REMARK    8  A    between atoms: _21  and  _24
REMARK    9  A    between atoms: _24  and  _25
REMARK   10  A    between atoms: _29  and  _30
REMARK   11  A    between atoms: _35  and  _37
REMARK   12  A    between atoms: _37  and  _38
REMARK   13  A    between atoms: _37  and  _40
REMARK   14  A    between atoms: _40  and  _41
REMARK   15  A    between atoms: _43  and  _45
REMARK   16  A    between atoms: _45  and  _46
REMARK   17  A    between atoms: _45  and  _48
REMARK   18  A    between atoms: _48  and  _49
REMARK   19  A    between atoms: _52  and  _54
REMARK   20  A    between atoms: _54  and  _55
REMARK   21  A    between atoms: _54  and  _57
REMARK   22  A    between atoms: _57  and  _58
REMARK   23  A    between atoms: _64  and  _66
REMARK   24  A    between atoms: _66  and  _67
REMARK   25  A    between atoms: _66  and  _69
REMARK   26  A    between atoms: _72  and  _74
REMARK   27  A    between atoms: _74  and  _75
REMARK   28  A    between atoms: _74  and  _77
REMARK   29  A    between atoms: _77  and  _78
REMARK   30  A    between atoms: _81  and  _83
REMARK   31  A    between atoms: _83  and  _84
REMARK   32  A    between atoms: _83  and  _86
REMARK   33  A    between atoms: _86  and  _87
REMARK   34  A    between atoms: _93  and  _95
REMARK   35  A    between atoms: _95  and  _96
REMARK   36  A    between atoms: _95  and  _98
REMARK   37  A    between atoms: _98  and  _99
REMARK   38  A    between atoms: _99  and  _100
REMARK   39  A    between atoms: _100  and  _101
REMARK   40  A    between atoms: _110  and  _112
REMARK   41  A    between atoms: _112  and  _113
REMARK   42  A    between atoms: _112  and  _115
REMARK   43  A    between atoms: _115  and  _116
REMARK   44  A    between atoms: _116  and  _117
REMARK   45  A    between atoms: _117  and  _118
REMARK   46  A    between atoms: _128  and  _129
REMARK   47  A    between atoms: _135  and  _136
REMARK   48  A    between atoms: _141  and  _143
REMARK   49  A    between atoms: _143  and  _144
REMARK   50  A    between atoms: _143  and  _146
REMARK   51  A    between atoms: _146  and  _147
REMARK   52  A    between atoms: _157  and  _159
REMARK   53  A    between atoms: _159  and  _160
REMARK   54  A    between atoms: _159  and  _162
REMARK   55  A    between atoms: _162  and  _163
REMARK   56  A    between atoms: _169  and  _171
REMARK   57  A    between atoms: _171  and  _172
REMARK   58  A    between atoms: _171  and  _174
REMARK   59  A    between atoms: _174  and  _175
REMARK   60  A    between atoms: _176  and  FE_434
REMARK   61  A    between atoms: _180  and  _182
REMARK   62  A    between atoms: _182  and  _183
REMARK   63  A    between atoms: _182  and  _185
REMARK   64  A    between atoms: _185  and  _186
REMARK   65  A    between atoms: _186  and  _187
REMARK   66  A    between atoms: _187  and  _188
REMARK   67  A    between atoms: _197  and  _199
REMARK   68  A    between atoms: _199  and  _200
REMARK   69  A    between atoms: _199  and  _202
REMARK   70  A    between atoms: _202  and  _203
REMARK   71  A    between atoms: _208  and  _210
REMARK   72  A    between atoms: _210  and  _211
REMARK   73  A    between atoms: _210  and  _213
REMARK   74  A    between atoms: _213  and  _214
REMARK   75  A    between atoms: _214  and  _215
REMARK   76  A    between atoms: _218  and  _220
REMARK   77  A    between atoms: _220  and  _221
REMARK   78  A    between atoms: _220  and  _223
REMARK   79  A    between atoms: _223  and  _224
REMARK   80  A    between atoms: _230  and  _232
REMARK   81  A    between atoms: _232  and  _233
REMARK   82  A    between atoms: _232  and  _235
REMARK   83  A    between atoms: _235  and  _236
REMARK   84  A    between atoms: _236  and  _237
REMARK   85  A    between atoms: _239  and  _241
REMARK   86  A    between atoms: _241  and  _242
REMARK   87  A    between atoms: _241  and  _244
REMARK   88  A    between atoms: _244  and  _245
REMARK   89  A    between atoms: _250  and  _251
REMARK   90  A    between atoms: _253  and  _255
REMARK   91  A    between atoms: _255  and  _256
REMARK   92  A    between atoms: _255  and  _258
REMARK   93  A    between atoms: _258  and  _259
REMARK   94  A    between atoms: _262  and  _264
REMARK   95  A    between atoms: _264  and  _265
REMARK   96  A    between atoms: _268  and  _270
REMARK   97  A    between atoms: _270  and  _271
REMARK   98  A    between atoms: _270  and  _273
REMARK   99  A    between atoms: _273  and  _274
REMARK  100  A    between atoms: _274  and  _275
REMARK  101  A    between atoms: _275  and  _276
REMARK  102  A    between atoms: _276  and  _277
REMARK  103  A    between atoms: _281  and  _283
REMARK  104  A    between atoms: _283  and  _284
REMARK  105  A    between atoms: _283  and  _286
REMARK  106  A    between atoms: _286  and  _287
REMARK  107  A    between atoms: _293  and  _295
REMARK  108  A    between atoms: _295  and  _296
REMARK  109  A    between atoms: _295  and  _298
REMARK  110  A    between atoms: _298  and  _299
REMARK  111  A    between atoms: _301  and  _303
REMARK  112  A    between atoms: _303  and  _304
REMARK  113  A    between atoms: _303  and  _306
REMARK  114  A    between atoms: _306  and  _307
REMARK  115  A    between atoms: _312  and  _314
REMARK  116  A    between atoms: _314  and  _315
REMARK  117  A    between atoms: _314  and  _317
REMARK  118  A    between atoms: _317  and  _318
REMARK  119  A    between atoms: _322  and  FE_434
REMARK  120  A    between atoms: _323  and  _325
REMARK  121  A    between atoms: _325  and  _326
REMARK  122  A    between atoms: _329  and  _330
REMARK  123  A    between atoms: _335  and  _337
REMARK  124  A    between atoms: _337  and  _338
REMARK  125  A    between atoms: _337  and  _340
REMARK  126  A    between atoms: _340  and  _341
REMARK  127  A    between atoms: _344  and  _346
REMARK  128  A    between atoms: _346  and  _347
REMARK  129  A    between atoms: _346  and  _349
REMARK  130  A    between atoms: _349  and  _350
REMARK  131  A    between atoms: _356  and  _358
REMARK  132  A    between atoms: _358  and  _359
REMARK  133  A    between atoms: _358  and  _361
REMARK  134  A    between atoms: _361  and  _362
REMARK  135  A    between atoms: _362  and  _363
REMARK  136  A    between atoms: _365  and  _367
REMARK  137  A    between atoms: _367  and  _368
REMARK  138  A    between atoms: _367  and  _370
REMARK  139  A    between atoms: _370  and  _371
REMARK  140  A    between atoms: _371  and  _372
REMARK  141  A    between atoms: _375  and  _377
REMARK  142  A    between atoms: _377  and  _378
REMARK  143  A    between atoms: _377  and  _380
REMARK  144  A    between atoms: _380  and  _381
REMARK  145  A    between atoms: _386  and  _387
REMARK  146  A    between atoms: _389  and  _391
REMARK  147  A    between atoms: _391  and  _392
REMARK  148  A    between atoms: _391  and  _394
REMARK  149  A    between atoms: _394  and  _395
REMARK  150  A    between atoms: _405  and  _407
REMARK  151  A    between atoms: _407  and  _408
REMARK  152  A    between atoms: _407  and  _410
REMARK  153  A    between atoms: _410  and  _411
REMARK  154  A    between atoms: _414  and  _416
REMARK  155  A    between atoms: _416  and  _417
REMARK  156  A    between atoms: _416  and  _419
REMARK  157  A    between atoms: _419  and  _420
REMARK  158  A    between atoms: _422  and  _424
REMARK  159  A    between atoms: _424  and  _425
REMARK  160  A    between atoms: _424  and  _427
REMARK  161  A    between atoms: _427  and  _428
REMARK                            x       y       z     vdW  Elec       q    Type
REMARK                         _______ _______ _______ _____ _____    ______ ____
ROOT
ATOM      1  O   HOH     1      22.685  37.792  -8.897  0.00  0.00    +0.000 OA
ENDROOT
TORSDOF 0
REMARK  Name = ../refined-set-2016/4aq6/4aq6_pocket.pdb
REMARK  161 active torsions:
REMARK  status: ('A' for Active; 'I' for Inactive)
REMARK    1  A    between atoms: _1  and  _3
REMARK    2  A    between atoms: _3  and  _4
REMARK    3  A    between atoms: _3  and  _6
REMARK    4  A    between atoms: _6  and  _7
REMARK    5  A    between atoms: _13  and  _14
REMARK    6  A    between atoms: _19  and  _21
REMARK    7  A    between atoms: _21  and  _22
REMARK    8  A    between atoms: _21  and  _24
REMARK    9  A    between atoms: _24  and  _25
REMARK   10  A    between atoms: _29  and  _30
REMARK   11  A    between atoms: _35  and  _37
REMARK   12  A    between atoms: _37  and  _38
REMARK   13  A    between atoms: _37  and  _40
REMARK   14  A    between atoms: _40  and  _41
REMARK   15  A    between atoms: _43  and  _45
REMARK   16  A    between atoms: _45  and  _46
REMARK   17  A    between atoms: _45  and  _48
REMARK   18  A    between atoms: _48  and  _49
REMARK   19  A    between atoms: _52  and  _54
REMARK   20  A    between atoms: _54  and  _55
REMARK   21  A    between atoms: _54  and  _57
REMARK   22  A    between atoms: _57  and  _58
REMARK   23  A    between atoms: _64  and  _66
REMARK   24  A    between atoms: _66  and  _67
REMARK   25  A    between atoms: _66  and  _69
REMARK   26  A    between atoms: _72  and  _74
REMARK   27  A    between atoms: _74  and  _75
REMARK   28  A    between atoms: _74  and  _77
REMARK   29  A    between atoms: _77  and  _78
REMARK   30  A    between atoms: _81  and  _83
REMARK   31  A    between atoms: _83  and  _84
REMARK   32  A    between atoms: _83  and  _86
REMARK   33  A    between atoms: _86  and  _87
REMARK   34  A    between atoms: _93  and  _95
REMARK   35  A    between atoms: _95  and  _96
REMARK   36  A    between atoms: _95  and  _98
REMARK   37  A    between atoms: _98  and  _99
REMARK   38  A    between atoms: _99  and  _100
REMARK   39  A    between atoms: _100  and  _101
REMARK   40  A    between atoms: _110  and  _112
REMARK   41  A    between atoms: _112  and  _113
REMARK   42  A    between atoms: _112  and  _115
REMARK   43  A    between atoms: _115  and  _116
REMARK   44  A    between atoms: _116  and  _117
REMARK   45  A    between atoms: _117  and  _118
REMARK   46  A    between atoms: _128  and  _129
REMARK   47  A    between atoms: _135  and  _136
REMARK   48  A    between atoms: _141  and  _143
REMARK   49  A    between atoms: _143  and  _144
REMARK   50  A    between atoms: _143  and  _146
REMARK   51  A    between atoms: _146  and  _147
REMARK   52  A    between atoms: _157  and  _159
REMARK   53  A    between atoms: _159  and  _160
REMARK   54  A    between atoms: _159  and  _162
REMARK   55  A    between atoms: _162  and  _163
REMARK   56  A    between atoms: _169  and  _171
REMARK   57  A    between atoms: _171  and  _172
REMARK   58  A    between atoms: _171  and  _174
REMARK   59  A    between atoms: _174  and  _175
REMARK   60  A    between atoms: _176  and  FE_434
REMARK   61  A    between atoms: _180  and  _182
REMARK   62  A    between atoms: _182  and  _183
REMARK   63  A    between atoms: _182  and  _185
REMARK   64  A    between atoms: _185  and  _186
REMARK   65  A    between atoms: _186  and  _187
REMARK   66  A    between atoms: _187  and  _188
REMARK   67  A    between atoms: _197  and  _199
REMARK   68  A    between atoms: _199  and  _200
REMARK   69  A    between atoms: _199  and  _202
REMARK   70  A    between atoms: _202  and  _203
REMARK   71  A    between atoms: _208  and  _210
REMARK   72  A    between atoms: _210  and  _211
REMARK   73  A    between atoms: _210  and  _213
REMARK   74  A    between atoms: _213  and  _214
REMARK   75  A    between atoms: _214  and  _215
REMARK   76  A    between atoms: _218  and  _220
REMARK   77  A    between atoms: _220  and  _221
REMARK   78  A    between atoms: _220  and  _223
REMARK   79  A    between atoms: _223  and  _224
REMARK   80  A    between atoms: _230  and  _232
REMARK   81  A    between atoms: _232  and  _233
REMARK   82  A    between atoms: _232  and  _235
REMARK   83  A    between atoms: _235  and  _236
REMARK   84  A    between atoms: _236  and  _237
REMARK   85  A    between atoms: _239  and  _241
REMARK   86  A    between atoms: _241  and  _242
REMARK   87  A    between atoms: _241  and  _244
REMARK   88  A    between atoms: _244  and  _245
REMARK   89  A    between atoms: _250  and  _251
REMARK   90  A    between atoms: _253  and  _255
REMARK   91  A    between atoms: _255  and  _256
REMARK   92  A    between atoms: _255  and  _258
REMARK   93  A    between atoms: _258  and  _259
REMARK   94  A    between atoms: _262  and  _264
REMARK   95  A    between atoms: _264  and  _265
REMARK   96  A    between atoms: _268  and  _270
REMARK   97  A    between atoms: _270  and  _271
REMARK   98  A    between atoms: _270  and  _273
REMARK   99  A    between atoms: _273  and  _274
REMARK  100  A    between atoms: _274  and  _275
REMARK  101  A    between atoms: _275  and  _276
REMARK  102  A    between atoms: _276  and  _277
REMARK  103  A    between atoms: _281  and  _283
REMARK  104  A    between atoms: _283  and  _284
REMARK  105  A    between atoms: _283  and  _286
REMARK  106  A    between atoms: _286  and  _287
REMARK  107  A    between atoms: _293  and  _295
REMARK  108  A    between atoms: _295  and  _296
REMARK  109  A    between atoms: _295  and  _298
REMARK  110  A    between atoms: _298  and  _299
REMARK  111  A    between atoms: _301  and  _303
REMARK  112  A    between atoms: _303  and  _304
REMARK  113  A    between atoms: _303  and  _306
REMARK  114  A    between atoms: _306  and  _307
REMARK  115  A    between atoms: _312  and  _314
REMARK  116  A    between atoms: _314  and  _315
REMARK  117  A    between atoms: _314  and  _317
REMARK  118  A    between atoms: _317  and  _318
REMARK  119  A    between atoms: _322  and  FE_434
REMARK  120  A    between atoms: _323  and  _325
REMARK  121  A    between atoms: _325  and  _326
REMARK  122  A    between atoms: _329  and  _330
REMARK  123  A    between atoms: _335  and  _337
REMARK  124  A    between atoms: _337  and  _338
REMARK  125  A    between atoms: _337  and  _340
REMARK  126  A    between atoms: _340  and  _341
REMARK  127  A    between atoms: _344  and  _346
REMARK  128  A    between atoms: _346  and  _347
REMARK  129  A    between atoms: _346  and  _349
REMARK  130  A    between atoms: _349  and  _350
REMARK  131  A    between atoms: _356  and  _358
REMARK  132  A    between atoms: _358  and  _359
REMARK  133  A    between atoms: _358  and  _361
REMARK  134  A    between atoms: _361  and  _362
REMARK  135  A    between atoms: _362  and  _363
REMARK  136  A    between atoms: _365  and  _367
REMARK  137  A    between atoms: _367  and  _368
REMARK  138  A    between atoms: _367  and  _370
REMARK  139  A    between atoms: _370  and  _371
REMARK  140  A    between atoms: _371  and  _372
REMARK  141  A    between atoms: _375  and  _377
REMARK  142  A    between atoms: _377  and  _378
REMARK  143  A    between atoms: _377  and  _380
REMARK  144  A    between atoms: _380  and  _381
REMARK  145  A    between atoms: _386  and  _387
REMARK  146  A    between atoms: _389  and  _391
REMARK  147  A    between atoms: _391  and  _392
REMARK  148  A    between atoms: _391  and  _394
REMARK  149  A    between atoms: _394  and  _395
REMARK  150  A    between atoms: _405  and  _407
REMARK  151  A    between atoms: _407  and  _408
REMARK  152  A    between atoms: _407  and  _410
REMARK  153  A    between atoms: _410  and  _411
REMARK  154  A    between atoms: _414  and  _416
REMARK  155  A    between atoms: _416  and  _417
REMARK  156  A    between atoms: _416  and  _419
REMARK  157  A    between atoms: _419  and  _420
REMARK  158  A    between atoms: _422  and  _424
REMARK  159  A    between atoms: _424  and  _425
REMARK  160  A    between atoms: _424  and  _427
REMARK  161  A    between atoms: _427  and  _428
REMARK                            x       y       z     vdW  Elec       q    Type
REMARK                         _______ _______ _______ _____ _____    ______ ____
ROOT
ATOM      1  O   HOH     1      19.586  39.117  -8.862  0.00  0.00    +0.000 OA
ENDROOT
TORSDOF 0
REMARK  Name = ../refined-set-2016/4aq6/4aq6_pocket.pdb
REMARK  161 active torsions:
REMARK  status: ('A' for Active; 'I' for Inactive)
REMARK    1  A    between atoms: _1  and  _3
REMARK    2  A    between atoms: _3  and  _4
REMARK    3  A    between atoms: _3  and  _6
REMARK    4  A    between atoms: _6  and  _7
REMARK    5  A    between atoms: _13  and  _14
REMARK    6  A    between atoms: _19  and  _21
REMARK    7  A    between atoms: _21  and  _22
REMARK    8  A    between atoms: _21  and  _24
REMARK    9  A    between atoms: _24  and  _25
REMARK   10  A    between atoms: _29  and  _30
REMARK   11  A    between atoms: _35  and  _37
REMARK   12  A    between atoms: _37  and  _38
REMARK   13  A    between atoms: _37  and  _40
REMARK   14  A    between atoms: _40  and  _41
REMARK   15  A    between atoms: _43  and  _45
REMARK   16  A    between atoms: _45  and  _46
REMARK   17  A    between atoms: _45  and  _48
REMARK   18  A    between atoms: _48  and  _49
REMARK   19  A    between atoms: _52  and  _54
REMARK   20  A    between atoms: _54  and  _55
REMARK   21  A    between atoms: _54  and  _57
REMARK   22  A    between atoms: _57  and  _58
REMARK   23  A    between atoms: _64  and  _66
REMARK   24  A    between atoms: _66  and  _67
REMARK   25  A    between atoms: _66  and  _69
REMARK   26  A    between atoms: _72  and  _74
REMARK   27  A    between atoms: _74  and  _75
REMARK   28  A    between atoms: _74  and  _77
REMARK   29  A    between atoms: _77  and  _78
REMARK   30  A    between atoms: _81  and  _83
REMARK   31  A    between atoms: _83  and  _84
REMARK   32  A    between atoms: _83  and  _86
REMARK   33  A    between atoms: _86  and  _87
REMARK   34  A    between atoms: _93  and  _95
REMARK   35  A    between atoms: _95  and  _96
REMARK   36  A    between atoms: _95  and  _98
REMARK   37  A    between atoms: _98  and  _99
REMARK   38  A    between atoms: _99  and  _100
REMARK   39  A    between atoms: _100  and  _101
REMARK   40  A    between atoms: _110  and  _112
REMARK   41  A    between atoms: _112  and  _113
REMARK   42  A    between atoms: _112  and  _115
REMARK   43  A    between atoms: _115  and  _116
REMARK   44  A    between atoms: _116  and  _117
REMARK   45  A    between atoms: _117  and  _118
REMARK   46  A    between atoms: _128  and  _129
REMARK   47  A    between atoms: _135  and  _136
REMARK   48  A    between atoms: _141  and  _143
REMARK   49  A    between atoms: _143  and  _144
REMARK   50  A    between atoms: _143  and  _146
REMARK   51  A    between atoms: _146  and  _147
REMARK   52  A    between atoms: _157  and  _159
REMARK   53  A    between atoms: _159  and  _160
REMARK   54  A    between atoms: _159  and  _162
REMARK   55  A    between atoms: _162  and  _163
REMARK   56  A    between atoms: _169  and  _171
REMARK   57  A    between atoms: _171  and  _172
REMARK   58  A    between atoms: _171  and  _174
REMARK   59  A    between atoms: _174  and  _175
REMARK   60  A    between atoms: _176  and  FE_434
REMARK   61  A    between atoms: _180  and  _182
REMARK   62  A    between atoms: _182  and  _183
REMARK   63  A    between atoms: _182  and  _185
REMARK   64  A    between atoms: _185  and  _186
REMARK   65  A    between atoms: _186  and  _187
REMARK   66  A    between atoms: _187  and  _188
REMARK   67  A    between atoms: _197  and  _199
REMARK   68  A    between atoms: _199  and  _200
REMARK   69  A    between atoms: _199  and  _202
REMARK   70  A    between atoms: _202  and  _203
REMARK   71  A    between atoms: _208  and  _210
REMARK   72  A    between atoms: _210  and  _211
REMARK   73  A    between atoms: _210  and  _213
REMARK   74  A    between atoms: _213  and  _214
REMARK   75  A    between atoms: _214  and  _215
REMARK   76  A    between atoms: _218  and  _220
REMARK   77  A    between atoms: _220  and  _221
REMARK   78  A    between atoms: _220  and  _223
REMARK   79  A    between atoms: _223  and  _224
REMARK   80  A    between atoms: _230  and  _232
REMARK   81  A    between atoms: _232  and  _233
REMARK   82  A    between atoms: _232  and  _235
REMARK   83  A    between atoms: _235  and  _236
REMARK   84  A    between atoms: _236  and  _237
REMARK   85  A    between atoms: _239  and  _241
REMARK   86  A    between atoms: _241  and  _242
REMARK   87  A    between atoms: _241  and  _244
REMARK   88  A    between atoms: _244  and  _245
REMARK   89  A    between atoms: _250  and  _251
REMARK   90  A    between atoms: _253  and  _255
REMARK   91  A    between atoms: _255  and  _256
REMARK   92  A    between atoms: _255  and  _258
REMARK   93  A    between atoms: _258  and  _259
REMARK   94  A    between atoms: _262  and  _264
REMARK   95  A    between atoms: _264  and  _265
REMARK   96  A    between atoms: _268  and  _270
REMARK   97  A    between atoms: _270  and  _271
REMARK   98  A    between atoms: _270  and  _273
REMARK   99  A    between atoms: _273  and  _274
REMARK  100  A    between atoms: _274  and  _275
REMARK  101  A    between atoms: _275  and  _276
REMARK  102  A    between atoms: _276  and  _277
REMARK  103  A    between atoms: _281  and  _283
REMARK  104  A    between atoms: _283  and  _284
REMARK  105  A    between atoms: _283  and  _286
REMARK  106  A    between atoms: _286  and  _287
REMARK  107  A    between atoms: _293  and  _295
REMARK  108  A    between atoms: _295  and  _296
REMARK  109  A    between atoms: _295  and  _298
REMARK  110  A    between atoms: _298  and  _299
REMARK  111  A    between atoms: _301  and  _303
REMARK  112  A    between atoms: _303  and  _304
REMARK  113  A    between atoms: _303  and  _306
REMARK  114  A    between atoms: _306  and  _307
REMARK  115  A    between atoms: _312  and  _314
REMARK  116  A    between atoms: _314  and  _315
REMARK  117  A    between atoms: _314  and  _317
REMARK  118  A    between atoms: _317  and  _318
REMARK  119  A    between atoms: _322  and  FE_434
REMARK  120  A    between atoms: _323  and  _325
REMARK  121  A    between atoms: _325  and  _326
REMARK  122  A    between atoms: _329  and  _330
REMARK  123  A    between atoms: _335  and  _337
REMARK  124  A    between atoms: _337  and  _338
REMARK  125  A    between atoms: _337  and  _340
REMARK  126  A    between atoms: _340  and  _341
REMARK  127  A    between atoms: _344  and  _346
REMARK  128  A    between atoms: _346  and  _347
REMARK  129  A    between atoms: _346  and  _349
REMARK  130  A    between atoms: _349  and  _350
REMARK  131  A    between atoms: _356  and  _358
REMARK  132  A    between atoms: _358  and  _359
REMARK  133  A    between atoms: _358  and  _361
REMARK  134  A    between atoms: _361  and  _362
REMARK  135  A    between atoms: _362  and  _363
REMARK  136  A    between atoms: _365  and  _367
REMARK  137  A    between atoms: _367  and  _368
REMARK  138  A    between atoms: _367  and  _370
REMARK  139  A    between atoms: _370  and  _371
REMARK  140  A    between atoms: _371  and  _372
REMARK  141  A    between atoms: _375  and  _377
REMARK  142  A    between atoms: _377  and  _378
REMARK  143  A    between atoms: _377  and  _380
REMARK  144  A    between atoms: _380  and  _381
REMARK  145  A    between atoms: _386  and  _387
REMARK  146  A    between atoms: _389  and  _391
REMARK  147  A    between atoms: _391  and  _392
REMARK  148  A    between atoms: _391  and  _394
REMARK  149  A    between atoms: _394  and  _395
REMARK  150  A    between atoms: _405  and  _407
REMARK  151  A    between atoms: _407  and  _408
REMARK  152  A    between atoms: _407  and  _410
REMARK  153  A    between atoms: _410  and  _411
REMARK  154  A    between atoms: _414  and  _416
REMARK  155  A    between atoms: _416  and  _417
REMARK  156  A    between atoms: _416  and  _419
REMARK  157  A    between atoms: _419  and  _420
REMARK  158  A    between atoms: _422  and  _424
REMARK  159  A    between atoms: _424  and  _425
REMARK  160  A    between atoms: _424  and  _427
REMARK  161  A    between atoms: _427  and  _428
REMARK                            x       y       z     vdW  Elec       q    Type
REMARK                         _______ _______ _______ _____ _____    ______ ____
ROOT
ATOM      1  O   HOH     1      21.213  36.247  -7.046  0.00  0.00    +0.000 OA
ENDROOT
TORSDOF 0
REMARK  Name = ../refined-set-2016/4aq6/4aq6_pocket.pdb
REMARK  161 active torsions:
REMARK  status: ('A' for Active; 'I' for Inactive)
REMARK    1  A    between atoms: _1  and  _3
REMARK    2  A    between atoms: _3  and  _4
REMARK    3  A    between atoms: _3  and  _6
REMARK    4  A    between atoms: _6  and  _7
REMARK    5  A    between atoms: _13  and  _14
REMARK    6  A    between atoms: _19  and  _21
REMARK    7  A    between atoms: _21  and  _22
REMARK    8  A    between atoms: _21  and  _24
REMARK    9  A    between atoms: _24  and  _25
REMARK   10  A    between atoms: _29  and  _30
REMARK   11  A    between atoms: _35  and  _37
REMARK   12  A    between atoms: _37  and  _38
REMARK   13  A    between atoms: _37  and  _40
REMARK   14  A    between atoms: _40  and  _41
REMARK   15  A    between atoms: _43  and  _45
REMARK   16  A    between atoms: _45  and  _46
REMARK   17  A    between atoms: _45  and  _48
REMARK   18  A    between atoms: _48  and  _49
REMARK   19  A    between atoms: _52  and  _54
REMARK   20  A    between atoms: _54  and  _55
REMARK   21  A    between atoms: _54  and  _57
REMARK   22  A    between atoms: _57  and  _58
REMARK   23  A    between atoms: _64  and  _66
REMARK   24  A    between atoms: _66  and  _67
REMARK   25  A    between atoms: _66  and  _69
REMARK   26  A    between atoms: _72  and  _74
REMARK   27  A    between atoms: _74  and  _75
REMARK   28  A    between atoms: _74  and  _77
REMARK   29  A    between atoms: _77  and  _78
REMARK   30  A    between atoms: _81  and  _83
REMARK   31  A    between atoms: _83  and  _84
REMARK   32  A    between atoms: _83  and  _86
REMARK   33  A    between atoms: _86  and  _87
REMARK   34  A    between atoms: _93  and  _95
REMARK   35  A    between atoms: _95  and  _96
REMARK   36  A    between atoms: _95  and  _98
REMARK   37  A    between atoms: _98  and  _99
REMARK   38  A    between atoms: _99  and  _100
REMARK   39  A    between atoms: _100  and  _101
REMARK   40  A    between atoms: _110  and  _112
REMARK   41  A    between atoms: _112  and  _113
REMARK   42  A    between atoms: _112  and  _115
REMARK   43  A    between atoms: _115  and  _116
REMARK   44  A    between atoms: _116  and  _117
REMARK   45  A    between atoms: _117  and  _118
REMARK   46  A    between atoms: _128  and  _129
REMARK   47  A    between atoms: _135  and  _136
REMARK   48  A    between atoms: _141  and  _143
REMARK   49  A    between atoms: _143  and  _144
REMARK   50  A    between atoms: _143  and  _146
REMARK   51  A    between atoms: _146  and  _147
REMARK   52  A    between atoms: _157  and  _159
REMARK   53  A    between atoms: _159  and  _160
REMARK   54  A    between atoms: _159  and  _162
REMARK   55  A    between atoms: _162  and  _163
REMARK   56  A    between atoms: _169  and  _171
REMARK   57  A    between atoms: _171  and  _172
REMARK   58  A    between atoms: _171  and  _174
REMARK   59  A    between atoms: _174  and  _175
REMARK   60  A    between atoms: _176  and  FE_434
REMARK   61  A    between atoms: _180  and  _182
REMARK   62  A    between atoms: _182  and  _183
REMARK   63  A    between atoms: _182  and  _185
REMARK   64  A    between atoms: _185  and  _186
REMARK   65  A    between atoms: _186  and  _187
REMARK   66  A    between atoms: _187  and  _188
REMARK   67  A    between atoms: _197  and  _199
REMARK   68  A    between atoms: _199  and  _200
REMARK   69  A    between atoms: _199  and  _202
REMARK   70  A    between atoms: _202  and  _203
REMARK   71  A    between atoms: _208  and  _210
REMARK   72  A    between atoms: _210  and  _211
REMARK   73  A    between atoms: _210  and  _213
REMARK   74  A    between atoms: _213  and  _214
REMARK   75  A    between atoms: _214  and  _215
REMARK   76  A    between atoms: _218  and  _220
REMARK   77  A    between atoms: _220  and  _221
REMARK   78  A    between atoms: _220  and  _223
REMARK   79  A    between atoms: _223  and  _224
REMARK   80  A    between atoms: _230  and  _232
REMARK   81  A    between atoms: _232  and  _233
REMARK   82  A    between atoms: _232  and  _235
REMARK   83  A    between atoms: _235  and  _236
REMARK   84  A    between atoms: _236  and  _237
REMARK   85  A    between atoms: _239  and  _241
REMARK   86  A    between atoms: _241  and  _242
REMARK   87  A    between atoms: _241  and  _244
REMARK   88  A    between atoms: _244  and  _245
REMARK   89  A    between atoms: _250  and  _251
REMARK   90  A    between atoms: _253  and  _255
REMARK   91  A    between atoms: _255  and  _256
REMARK   92  A    between atoms: _255  and  _258
REMARK   93  A    between atoms: _258  and  _259
REMARK   94  A    between atoms: _262  and  _264
REMARK   95  A    between atoms: _264  and  _265
REMARK   96  A    between atoms: _268  and  _270
REMARK   97  A    between atoms: _270  and  _271
REMARK   98  A    between atoms: _270  and  _273
REMARK   99  A    between atoms: _273  and  _274
REMARK  100  A    between atoms: _274  and  _275
REMARK  101  A    between atoms: _275  and  _276
REMARK  102  A    between atoms: _276  and  _277
REMARK  103  A    between atoms: _281  and  _283
REMARK  104  A    between atoms: _283  and  _284
REMARK  105  A    between atoms: _283  and  _286
REMARK  106  A    between atoms: _286  and  _287
REMARK  107  A    between atoms: _293  and  _295
REMARK  108  A    between atoms: _295  and  _296
REMARK  109  A    between atoms: _295  and  _298
REMARK  110  A    between atoms: _298  and  _299
REMARK  111  A    between atoms: _301  and  _303
REMARK  112  A    between atoms: _303  and  _304
REMARK  113  A    between atoms: _303  and  _306
REMARK  114  A    between atoms: _306  and  _307
REMARK  115  A    between atoms: _312  and  _314
REMARK  116  A    between atoms: _314  and  _315
REMARK  117  A    between atoms: _314  and  _317
REMARK  118  A    between atoms: _317  and  _318
REMARK  119  A    between atoms: _322  and  FE_434
REMARK  120  A    between atoms: _323  and  _325
REMARK  121  A    between atoms: _325  and  _326
REMARK  122  A    between atoms: _329  and  _330
REMARK  123  A    between atoms: _335  and  _337
REMARK  124  A    between atoms: _337  and  _338
REMARK  125  A    between atoms: _337  and  _340
REMARK  126  A    between atoms: _340  and  _341
REMARK  127  A    between atoms: _344  and  _346
REMARK  128  A    between atoms: _346  and  _347
REMARK  129  A    between atoms: _346  and  _349
REMARK  130  A    between atoms: _349  and  _350
REMARK  131  A    between atoms: _356  and  _358
REMARK  132  A    between atoms: _358  and  _359
REMARK  133  A    between atoms: _358  and  _361
REMARK  134  A    between atoms: _361  and  _362
REMARK  135  A    between atoms: _362  and  _363
REMARK  136  A    between atoms: _365  and  _367
REMARK  137  A    between atoms: _367  and  _368
REMARK  138  A    between atoms: _367  and  _370
REMARK  139  A    between atoms: _370  and  _371
REMARK  140  A    between atoms: _371  and  _372
REMARK  141  A    between atoms: _375  and  _377
REMARK  142  A    between atoms: _377  and  _378
REMARK  143  A    between atoms: _377  and  _380
REMARK  144  A    between atoms: _380  and  _381
REMARK  145  A    between atoms: _386  and  _387
REMARK  146  A    between atoms: _389  and  _391
REMARK  147  A    between atoms: _391  and  _392
REMARK  148  A    between atoms: _391  and  _394
REMARK  149  A    between atoms: _394  and  _395
REMARK  150  A    between atoms: _405  and  _407
REMARK  151  A    between atoms: _407  and  _408
REMARK  152  A    between atoms: _407  and  _410
REMARK  153  A    between atoms: _410  and  _411
REMARK  154  A    between atoms: _414  and  _416
REMARK  155  A    between atoms: _416  and  _417
REMARK  156  A    between atoms: _416  and  _419
REMARK  157  A    between atoms: _419  and  _420
REMARK  158  A    between atoms: _422  and  _424
REMARK  159  A    between atoms: _424  and  _425
REMARK  160  A    between atoms: _424  and  _427
REMARK  161  A    between atoms: _427  and  _428
REMARK                            x       y       z     vdW  Elec       q    Type
REMARK                         _______ _______ _______ _____ _____    ______ ____
ROOT
ATOM      1  O   HOH     1      25.813  43.831  -6.390  0.00  0.00    +0.000 OA
ENDROOT
TORSDOF 0
REMARK  Name = ../refined-set-2016/4aq6/4aq6_pocket.pdb
REMARK  161 active torsions:
REMARK  status: ('A' for Active; 'I' for Inactive)
REMARK    1  A    between atoms: _1  and  _3
REMARK    2  A    between atoms: _3  and  _4
REMARK    3  A    between atoms: _3  and  _6
REMARK    4  A    between atoms: _6  and  _7
REMARK    5  A    between atoms: _13  and  _14
REMARK    6  A    between atoms: _19  and  _21
REMARK    7  A    between atoms: _21  and  _22
REMARK    8  A    between atoms: _21  and  _24
REMARK    9  A    between atoms: _24  and  _25
REMARK   10  A    between atoms: _29  and  _30
REMARK   11  A    between atoms: _35  and  _37
REMARK   12  A    between atoms: _37  and  _38
REMARK   13  A    between atoms: _37  and  _40
REMARK   14  A    between atoms: _40  and  _41
REMARK   15  A    between atoms: _43  and  _45
REMARK   16  A    between atoms: _45  and  _46
REMARK   17  A    between atoms: _45  and  _48
REMARK   18  A    between atoms: _48  and  _49
REMARK   19  A    between atoms: _52  and  _54
REMARK   20  A    between atoms: _54  and  _55
REMARK   21  A    between atoms: _54  and  _57
REMARK   22  A    between atoms: _57  and  _58
REMARK   23  A    between atoms: _64  and  _66
REMARK   24  A    between atoms: _66  and  _67
REMARK   25  A    between atoms: _66  and  _69
REMARK   26  A    between atoms: _72  and  _74
REMARK   27  A    between atoms: _74  and  _75
REMARK   28  A    between atoms: _74  and  _77
REMARK   29  A    between atoms: _77  and  _78
REMARK   30  A    between atoms: _81  and  _83
REMARK   31  A    between atoms: _83  and  _84
REMARK   32  A    between atoms: _83  and  _86
REMARK   33  A    between atoms: _86  and  _87
REMARK   34  A    between atoms: _93  and  _95
REMARK   35  A    between atoms: _95  and  _96
REMARK   36  A    between atoms: _95  and  _98
REMARK   37  A    between atoms: _98  and  _99
REMARK   38  A    between atoms: _99  and  _100
REMARK   39  A    between atoms: _100  and  _101
REMARK   40  A    between atoms: _110  and  _112
REMARK   41  A    between atoms: _112  and  _113
REMARK   42  A    between atoms: _112  and  _115
REMARK   43  A    between atoms: _115  and  _116
REMARK   44  A    between atoms: _116  and  _117
REMARK   45  A    between atoms: _117  and  _118
REMARK   46  A    between atoms: _128  and  _129
REMARK   47  A    between atoms: _135  and  _136
REMARK   48  A    between atoms: _141  and  _143
REMARK   49  A    between atoms: _143  and  _144
REMARK   50  A    between atoms: _143  and  _146
REMARK   51  A    between atoms: _146  and  _147
REMARK   52  A    between atoms: _157  and  _159
REMARK   53  A    between atoms: _159  and  _160
REMARK   54  A    between atoms: _159  and  _162
REMARK   55  A    between atoms: _162  and  _163
REMARK   56  A    between atoms: _169  and  _171
REMARK   57  A    between atoms: _171  and  _172
REMARK   58  A    between atoms: _171  and  _174
REMARK   59  A    between atoms: _174  and  _175
REMARK   60  A    between atoms: _176  and  FE_434
REMARK   61  A    between atoms: _180  and  _182
REMARK   62  A    between atoms: _182  and  _183
REMARK   63  A    between atoms: _182  and  _185
REMARK   64  A    between atoms: _185  and  _186
REMARK   65  A    between atoms: _186  and  _187
REMARK   66  A    between atoms: _187  and  _188
REMARK   67  A    between atoms: _197  and  _199
REMARK   68  A    between atoms: _199  and  _200
REMARK   69  A    between atoms: _199  and  _202
REMARK   70  A    between atoms: _202  and  _203
REMARK   71  A    between atoms: _208  and  _210
REMARK   72  A    between atoms: _210  and  _211
REMARK   73  A    between atoms: _210  and  _213
REMARK   74  A    between atoms: _213  and  _214
REMARK   75  A    between atoms: _214  and  _215
REMARK   76  A    between atoms: _218  and  _220
REMARK   77  A    between atoms: _220  and  _221
REMARK   78  A    between atoms: _220  and  _223
REMARK   79  A    between atoms: _223  and  _224
REMARK   80  A    between atoms: _230  and  _232
REMARK   81  A    between atoms: _232  and  _233
REMARK   82  A    between atoms: _232  and  _235
REMARK   83  A    between atoms: _235  and  _236
REMARK   84  A    between atoms: _236  and  _237
REMARK   85  A    between atoms: _239  and  _241
REMARK   86  A    between atoms: _241  and  _242
REMARK   87  A    between atoms: _241  and  _244
REMARK   88  A    between atoms: _244  and  _245
REMARK   89  A    between atoms: _250  and  _251
REMARK   90  A    between atoms: _253  and  _255
REMARK   91  A    between atoms: _255  and  _256
REMARK   92  A    between atoms: _255  and  _258
REMARK   93  A    between atoms: _258  and  _259
REMARK   94  A    between atoms: _262  and  _264
REMARK   95  A    between atoms: _264  and  _265
REMARK   96  A    between atoms: _268  and  _270
REMARK   97  A    between atoms: _270  and  _271
REMARK   98  A    between atoms: _270  and  _273
REMARK   99  A    between atoms: _273  and  _274
REMARK  100  A    between atoms: _274  and  _275
REMARK  101  A    between atoms: _275  and  _276
REMARK  102  A    between atoms: _276  and  _277
REMARK  103  A    between atoms: _281  and  _283
REMARK  104  A    between atoms: _283  and  _284
REMARK  105  A    between atoms: _283  and  _286
REMARK  106  A    between atoms: _286  and  _287
REMARK  107  A    between atoms: _293  and  _295
REMARK  108  A    between atoms: _295  and  _296
REMARK  109  A    between atoms: _295  and  _298
REMARK  110  A    between atoms: _298  and  _299
REMARK  111  A    between atoms: _301  and  _303
REMARK  112  A    between atoms: _303  and  _304
REMARK  113  A    between atoms: _303  and  _306
REMARK  114  A    between atoms: _306  and  _307
REMARK  115  A    between atoms: _312  and  _314
REMARK  116  A    between atoms: _314  and  _315
REMARK  117  A    between atoms: _314  and  _317
REMARK  118  A    between atoms: _317  and  _318
REMARK  119  A    between atoms: _322  and  FE_434
REMARK  120  A    between atoms: _323  and  _325
REMARK  121  A    between atoms: _325  and  _326
REMARK  122  A    between atoms: _329  and  _330
REMARK  123  A    between atoms: _335  and  _337
REMARK  124  A    between atoms: _337  and  _338
REMARK  125  A    between atoms: _337  and  _340
REMARK  126  A    between atoms: _340  and  _341
REMARK  127  A    between atoms: _344  and  _346
REMARK  128  A    between atoms: _346  and  _347
REMARK  129  A    between atoms: _346  and  _349
REMARK  130  A    between atoms: _349  and  _350
REMARK  131  A    between atoms: _356  and  _358
REMARK  132  A    between atoms: _358  and  _359
REMARK  133  A    between atoms: _358  and  _361
REMARK  134  A    between atoms: _361  and  _362
REMARK  135  A    between atoms: _362  and  _363
REMARK  136  A    between atoms: _365  and  _367
REMARK  137  A    between atoms: _367  and  _368
REMARK  138  A    between atoms: _367  and  _370
REMARK  139  A    between atoms: _370  and  _371
REMARK  140  A    between atoms: _371  and  _372
REMARK  141  A    between atoms: _375  and  _377
REMARK  142  A    between atoms: _377  and  _378
REMARK  143  A    between atoms: _377  and  _380
REMARK  144  A    between atoms: _380  and  _381
REMARK  145  A    between atoms: _386  and  _387
REMARK  146  A    between atoms: _389  and  _391
REMARK  147  A    between atoms: _391  and  _392
REMARK  148  A    between atoms: _391  and  _394
REMARK  149  A    between atoms: _394  and  _395
REMARK  150  A    between atoms: _405  and  _407
REMARK  151  A    between atoms: _407  and  _408
REMARK  152  A    between atoms: _407  and  _410
REMARK  153  A    between atoms: _410  and  _411
REMARK  154  A    between atoms: _414  and  _416
REMARK  155  A    between atoms: _416  and  _417
REMARK  156  A    between atoms: _416  and  _419
REMARK  157  A    between atoms: _419  and  _420
REMARK  158  A    between atoms: _422  and  _424
REMARK  159  A    between atoms: _424  and  _425
REMARK  160  A    between atoms: _424  and  _427
REMARK  161  A    between atoms: _427  and  _428
REMARK                            x       y       z     vdW  Elec       q    Type
REMARK                         _______ _______ _______ _____ _____    ______ ____
ROOT
ATOM      1  O   HOH     1      23.193  37.371  -4.152  0.00  0.00    +0.000 OA
ENDROOT
TORSDOF 0
REMARK  Name = ../refined-set-2016/4aq6/4aq6_pocket.pdb
REMARK  161 active torsions:
REMARK  status: ('A' for Active; 'I' for Inactive)
REMARK    1  A    between atoms: _1  and  _3
REMARK    2  A    between atoms: _3  and  _4
REMARK    3  A    between atoms: _3  and  _6
REMARK    4  A    between atoms: _6  and  _7
REMARK    5  A    between atoms: _13  and  _14
REMARK    6  A    between atoms: _19  and  _21
REMARK    7  A    between atoms: _21  and  _22
REMARK    8  A    between atoms: _21  and  _24
REMARK    9  A    between atoms: _24  and  _25
REMARK   10  A    between atoms: _29  and  _30
REMARK   11  A    between atoms: _35  and  _37
REMARK   12  A    between atoms: _37  and  _38
REMARK   13  A    between atoms: _37  and  _40
REMARK   14  A    between atoms: _40  and  _41
REMARK   15  A    between atoms: _43  and  _45
REMARK   16  A    between atoms: _45  and  _46
REMARK   17  A    between atoms: _45  and  _48
REMARK   18  A    between atoms: _48  and  _49
REMARK   19  A    between atoms: _52  and  _54
REMARK   20  A    between atoms: _54  and  _55
REMARK   21  A    between atoms: _54  and  _57
REMARK   22  A    between atoms: _57  and  _58
REMARK   23  A    between atoms: _64  and  _66
REMARK   24  A    between atoms: _66  and  _67
REMARK   25  A    between atoms: _66  and  _69
REMARK   26  A    between atoms: _72  and  _74
REMARK   27  A    between atoms: _74  and  _75
REMARK   28  A    between atoms: _74  and  _77
REMARK   29  A    between atoms: _77  and  _78
REMARK   30  A    between atoms: _81  and  _83
REMARK   31  A    between atoms: _83  and  _84
REMARK   32  A    between atoms: _83  and  _86
REMARK   33  A    between atoms: _86  and  _87
REMARK   34  A    between atoms: _93  and  _95
REMARK   35  A    between atoms: _95  and  _96
REMARK   36  A    between atoms: _95  and  _98
REMARK   37  A    between atoms: _98  and  _99
REMARK   38  A    between atoms: _99  and  _100
REMARK   39  A    between atoms: _100  and  _101
REMARK   40  A    between atoms: _110  and  _112
REMARK   41  A    between atoms: _112  and  _113
REMARK   42  A    between atoms: _112  and  _115
REMARK   43  A    between atoms: _115  and  _116
REMARK   44  A    between atoms: _116  and  _117
REMARK   45  A    between atoms: _117  and  _118
REMARK   46  A    between atoms: _128  and  _129
REMARK   47  A    between atoms: _135  and  _136
REMARK   48  A    between atoms: _141  and  _143
REMARK   49  A    between atoms: _143  and  _144
REMARK   50  A    between atoms: _143  and  _146
REMARK   51  A    between atoms: _146  and  _147
REMARK   52  A    between atoms: _157  and  _159
REMARK   53  A    between atoms: _159  and  _160
REMARK   54  A    between atoms: _159  and  _162
REMARK   55  A    between atoms: _162  and  _163
REMARK   56  A    between atoms: _169  and  _171
REMARK   57  A    between atoms: _171  and  _172
REMARK   58  A    between atoms: _171  and  _174
REMARK   59  A    between atoms: _174  and  _175
REMARK   60  A    between atoms: _176  and  FE_434
REMARK   61  A    between atoms: _180  and  _182
REMARK   62  A    between atoms: _182  and  _183
REMARK   63  A    between atoms: _182  and  _185
REMARK   64  A    between atoms: _185  and  _186
REMARK   65  A    between atoms: _186  and  _187
REMARK   66  A    between atoms: _187  and  _188
REMARK   67  A    between atoms: _197  and  _199
REMARK   68  A    between atoms: _199  and  _200
REMARK   69  A    between atoms: _199  and  _202
REMARK   70  A    between atoms: _202  and  _203
REMARK   71  A    between atoms: _208  and  _210
REMARK   72  A    between atoms: _210  and  _211
REMARK   73  A    between atoms: _210  and  _213
REMARK   74  A    between atoms: _213  and  _214
REMARK   75  A    between atoms: _214  and  _215
REMARK   76  A    between atoms: _218  and  _220
REMARK   77  A    between atoms: _220  and  _221
REMARK   78  A    between atoms: _220  and  _223
REMARK   79  A    between atoms: _223  and  _224
REMARK   80  A    between atoms: _230  and  _232
REMARK   81  A    between atoms: _232  and  _233
REMARK   82  A    between atoms: _232  and  _235
REMARK   83  A    between atoms: _235  and  _236
REMARK   84  A    between atoms: _236  and  _237
REMARK   85  A    between atoms: _239  and  _241
REMARK   86  A    between atoms: _241  and  _242
REMARK   87  A    between atoms: _241  and  _244
REMARK   88  A    between atoms: _244  and  _245
REMARK   89  A    between atoms: _250  and  _251
REMARK   90  A    between atoms: _253  and  _255
REMARK   91  A    between atoms: _255  and  _256
REMARK   92  A    between atoms: _255  and  _258
REMARK   93  A    between atoms: _258  and  _259
REMARK   94  A    between atoms: _262  and  _264
REMARK   95  A    between atoms: _264  and  _265
REMARK   96  A    between atoms: _268  and  _270
REMARK   97  A    between atoms: _270  and  _271
REMARK   98  A    between atoms: _270  and  _273
REMARK   99  A    between atoms: _273  and  _274
REMARK  100  A    between atoms: _274  and  _275
REMARK  101  A    between atoms: _275  and  _276
REMARK  102  A    between atoms: _276  and  _277
REMARK  103  A    between atoms: _281  and  _283
REMARK  104  A    between atoms: _283  and  _284
REMARK  105  A    between atoms: _283  and  _286
REMARK  106  A    between atoms: _286  and  _287
REMARK  107  A    between atoms: _293  and  _295
REMARK  108  A    between atoms: _295  and  _296
REMARK  109  A    between atoms: _295  and  _298
REMARK  110  A    between atoms: _298  and  _299
REMARK  111  A    between atoms: _301  and  _303
REMARK  112  A    between atoms: _303  and  _304
REMARK  113  A    between atoms: _303  and  _306
REMARK  114  A    between atoms: _306  and  _307
REMARK  115  A    between atoms: _312  and  _314
REMARK  116  A    between atoms: _314  and  _315
REMARK  117  A    between atoms: _314  and  _317
REMARK  118  A    between atoms: _317  and  _318
REMARK  119  A    between atoms: _322  and  FE_434
REMARK  120  A    between atoms: _323  and  _325
REMARK  121  A    between atoms: _325  and  _326
REMARK  122  A    between atoms: _329  and  _330
REMARK  123  A    between atoms: _335  and  _337
REMARK  124  A    between atoms: _337  and  _338
REMARK  125  A    between atoms: _337  and  _340
REMARK  126  A    between atoms: _340  and  _341
REMARK  127  A    between atoms: _344  and  _346
REMARK  128  A    between atoms: _346  and  _347
REMARK  129  A    between atoms: _346  and  _349
REMARK  130  A    between atoms: _349  and  _350
REMARK  131  A    between atoms: _356  and  _358
REMARK  132  A    between atoms: _358  and  _359
REMARK  133  A    between atoms: _358  and  _361
REMARK  134  A    between atoms: _361  and  _362
REMARK  135  A    between atoms: _362  and  _363
REMARK  136  A    between atoms: _365  and  _367
REMARK  137  A    between atoms: _367  and  _368
REMARK  138  A    between atoms: _367  and  _370
REMARK  139  A    between atoms: _370  and  _371
REMARK  140  A    between atoms: _371  and  _372
REMARK  141  A    between atoms: _375  and  _377
REMARK  142  A    between atoms: _377  and  _378
REMARK  143  A    between atoms: _377  and  _380
REMARK  144  A    between atoms: _380  and  _381
REMARK  145  A    between atoms: _386  and  _387
REMARK  146  A    between atoms: _389  and  _391
REMARK  147  A    between atoms: _391  and  _392
REMARK  148  A    between atoms: _391  and  _394
REMARK  149  A    between atoms: _394  and  _395
REMARK  150  A    between atoms: _405  and  _407
REMARK  151  A    between atoms: _407  and  _408
REMARK  152  A    between atoms: _407  and  _410
REMARK  153  A    between atoms: _410  and  _411
REMARK  154  A    between atoms: _414  and  _416
REMARK  155  A    between atoms: _416  and  _417
REMARK  156  A    between atoms: _416  and  _419
REMARK  157  A    between atoms: _419  and  _420
REMARK  158  A    between atoms: _422  and  _424
REMARK  159  A    between atoms: _424  and  _425
REMARK  160  A    between atoms: _424  and  _427
REMARK  161  A    between atoms: _427  and  _428
REMARK                            x       y       z     vdW  Elec       q    Type
REMARK                         _______ _______ _______ _____ _____    ______ ____
ROOT
ATOM      1  O   HOH     1      20.058  45.302  -0.722  0.00  0.00    +0.000 OA
ENDROOT
TORSDOF 0
REMARK  Name = ../refined-set-2016/4aq6/4aq6_pocket.pdb
REMARK  161 active torsions:
REMARK  status: ('A' for Active; 'I' for Inactive)
REMARK    1  A    between atoms: _1  and  _3
REMARK    2  A    between atoms: _3  and  _4
REMARK    3  A    between atoms: _3  and  _6
REMARK    4  A    between atoms: _6  and  _7
REMARK    5  A    between atoms: _13  and  _14
REMARK    6  A    between atoms: _19  and  _21
REMARK    7  A    between atoms: _21  and  _22
REMARK    8  A    between atoms: _21  and  _24
REMARK    9  A    between atoms: _24  and  _25
REMARK   10  A    between atoms: _29  and  _30
REMARK   11  A    between atoms: _35  and  _37
REMARK   12  A    between atoms: _37  and  _38
REMARK   13  A    between atoms: _37  and  _40
REMARK   14  A    between atoms: _40  and  _41
REMARK   15  A    between atoms: _43  and  _45
REMARK   16  A    between atoms: _45  and  _46
REMARK   17  A    between atoms: _45  and  _48
REMARK   18  A    between atoms: _48  and  _49
REMARK   19  A    between atoms: _52  and  _54
REMARK   20  A    between atoms: _54  and  _55
REMARK   21  A    between atoms: _54  and  _57
REMARK   22  A    between atoms: _57  and  _58
REMARK   23  A    between atoms: _64  and  _66
REMARK   24  A    between atoms: _66  and  _67
REMARK   25  A    between atoms: _66  and  _69
REMARK   26  A    between atoms: _72  and  _74
REMARK   27  A    between atoms: _74  and  _75
REMARK   28  A    between atoms: _74  and  _77
REMARK   29  A    between atoms: _77  and  _78
REMARK   30  A    between atoms: _81  and  _83
REMARK   31  A    between atoms: _83  and  _84
REMARK   32  A    between atoms: _83  and  _86
REMARK   33  A    between atoms: _86  and  _87
REMARK   34  A    between atoms: _93  and  _95
REMARK   35  A    between atoms: _95  and  _96
REMARK   36  A    between atoms: _95  and  _98
REMARK   37  A    between atoms: _98  and  _99
REMARK   38  A    between atoms: _99  and  _100
REMARK   39  A    between atoms: _100  and  _101
REMARK   40  A    between atoms: _110  and  _112
REMARK   41  A    between atoms: _112  and  _113
REMARK   42  A    between atoms: _112  and  _115
REMARK   43  A    between atoms: _115  and  _116
REMARK   44  A    between atoms: _116  and  _117
REMARK   45  A    between atoms: _117  and  _118
REMARK   46  A    between atoms: _128  and  _129
REMARK   47  A    between atoms: _135  and  _136
REMARK   48  A    between atoms: _141  and  _143
REMARK   49  A    between atoms: _143  and  _144
REMARK   50  A    between atoms: _143  and  _146
REMARK   51  A    between atoms: _146  and  _147
REMARK   52  A    between atoms: _157  and  _159
REMARK   53  A    between atoms: _159  and  _160
REMARK   54  A    between atoms: _159  and  _162
REMARK   55  A    between atoms: _162  and  _163
REMARK   56  A    between atoms: _169  and  _171
REMARK   57  A    between atoms: _171  and  _172
REMARK   58  A    between atoms: _171  and  _174
REMARK   59  A    between atoms: _174  and  _175
REMARK   60  A    between atoms: _176  and  FE_434
REMARK   61  A    between atoms: _180  and  _182
REMARK   62  A    between atoms: _182  and  _183
REMARK   63  A    between atoms: _182  and  _185
REMARK   64  A    between atoms: _185  and  _186
REMARK   65  A    between atoms: _186  and  _187
REMARK   66  A    between atoms: _187  and  _188
REMARK   67  A    between atoms: _197  and  _199
REMARK   68  A    between atoms: _199  and  _200
REMARK   69  A    between atoms: _199  and  _202
REMARK   70  A    between atoms: _202  and  _203
REMARK   71  A    between atoms: _208  and  _210
REMARK   72  A    between atoms: _210  and  _211
REMARK   73  A    between atoms: _210  and  _213
REMARK   74  A    between atoms: _213  and  _214
REMARK   75  A    between atoms: _214  and  _215
REMARK   76  A    between atoms: _218  and  _220
REMARK   77  A    between atoms: _220  and  _221
REMARK   78  A    between atoms: _220  and  _223
REMARK   79  A    between atoms: _223  and  _224
REMARK   80  A    between atoms: _230  and  _232
REMARK   81  A    between atoms: _232  and  _233
REMARK   82  A    between atoms: _232  and  _235
REMARK   83  A    between atoms: _235  and  _236
REMARK   84  A    between atoms: _236  and  _237
REMARK   85  A    between atoms: _239  and  _241
REMARK   86  A    between atoms: _241  and  _242
REMARK   87  A    between atoms: _241  and  _244
REMARK   88  A    between atoms: _244  and  _245
REMARK   89  A    between atoms: _250  and  _251
REMARK   90  A    between atoms: _253  and  _255
REMARK   91  A    between atoms: _255  and  _256
REMARK   92  A    between atoms: _255  and  _258
REMARK   93  A    between atoms: _258  and  _259
REMARK   94  A    between atoms: _262  and  _264
REMARK   95  A    between atoms: _264  and  _265
REMARK   96  A    between atoms: _268  and  _270
REMARK   97  A    between atoms: _270  and  _271
REMARK   98  A    between atoms: _270  and  _273
REMARK   99  A    between atoms: _273  and  _274
REMARK  100  A    between atoms: _274  and  _275
REMARK  101  A    between atoms: _275  and  _276
REMARK  102  A    between atoms: _276  and  _277
REMARK  103  A    between atoms: _281  and  _283
REMARK  104  A    between atoms: _283  and  _284
REMARK  105  A    between atoms: _283  and  _286
REMARK  106  A    between atoms: _286  and  _287
REMARK  107  A    between atoms: _293  and  _295
REMARK  108  A    between atoms: _295  and  _296
REMARK  109  A    between atoms: _295  and  _298
REMARK  110  A    between atoms: _298  and  _299
REMARK  111  A    between atoms: _301  and  _303
REMARK  112  A    between atoms: _303  and  _304
REMARK  113  A    between atoms: _303  and  _306
REMARK  114  A    between atoms: _306  and  _307
REMARK  115  A    between atoms: _312  and  _314
REMARK  116  A    between atoms: _314  and  _315
REMARK  117  A    between atoms: _314  and  _317
REMARK  118  A    between atoms: _317  and  _318
REMARK  119  A    between atoms: _322  and  FE_434
REMARK  120  A    between atoms: _323  and  _325
REMARK  121  A    between atoms: _325  and  _326
REMARK  122  A    between atoms: _329  and  _330
REMARK  123  A    between atoms: _335  and  _337
REMARK  124  A    between atoms: _337  and  _338
REMARK  125  A    between atoms: _337  and  _340
REMARK  126  A    between atoms: _340  and  _341
REMARK  127  A    between atoms: _344  and  _346
REMARK  128  A    between atoms: _346  and  _347
REMARK  129  A    between atoms: _346  and  _349
REMARK  130  A    between atoms: _349  and  _350
REMARK  131  A    between atoms: _356  and  _358
REMARK  132  A    between atoms: _358  and  _359
REMARK  133  A    between atoms: _358  and  _361
REMARK  134  A    between atoms: _361  and  _362
REMARK  135  A    between atoms: _362  and  _363
REMARK  136  A    between atoms: _365  and  _367
REMARK  137  A    between atoms: _367  and  _368
REMARK  138  A    between atoms: _367  and  _370
REMARK  139  A    between atoms: _370  and  _371
REMARK  140  A    between atoms: _371  and  _372
REMARK  141  A    between atoms: _375  and  _377
REMARK  142  A    between atoms: _377  and  _378
REMARK  143  A    between atoms: _377  and  _380
REMARK  144  A    between atoms: _380  and  _381
REMARK  145  A    between atoms: _386  and  _387
REMARK  146  A    between atoms: _389  and  _391
REMARK  147  A    between atoms: _391  and  _392
REMARK  148  A    between atoms: _391  and  _394
REMARK  149  A    between atoms: _394  and  _395
REMARK  150  A    between atoms: _405  and  _407
REMARK  151  A    between atoms: _407  and  _408
REMARK  152  A    between atoms: _407  and  _410
REMARK  153  A    between atoms: _410  and  _411
REMARK  154  A    between atoms: _414  and  _416
REMARK  155  A    between atoms: _416  and  _417
REMARK  156  A    between atoms: _416  and  _419
REMARK  157  A    between atoms: _419  and  _420
REMARK  158  A    between atoms: _422  and  _424
REMARK  159  A    between atoms: _424  and  _425
REMARK  160  A    between atoms: _424  and  _427
REMARK  161  A    between atoms: _427  and  _428
REMARK                            x       y       z     vdW  Elec       q    Type
REMARK                         _______ _______ _______ _____ _____    ______ ____
ROOT
ATOM      1  O   HOH     1      14.499  51.506   0.840  0.00  0.00    +0.000 OA
ENDROOT
TORSDOF 0
REMARK  Name = ../refined-set-2016/4aq6/4aq6_pocket.pdb
REMARK  161 active torsions:
REMARK  status: ('A' for Active; 'I' for Inactive)
REMARK    1  A    between atoms: _1  and  _3
REMARK    2  A    between atoms: _3  and  _4
REMARK    3  A    between atoms: _3  and  _6
REMARK    4  A    between atoms: _6  and  _7
REMARK    5  A    between atoms: _13  and  _14
REMARK    6  A    between atoms: _19  and  _21
REMARK    7  A    between atoms: _21  and  _22
REMARK    8  A    between atoms: _21  and  _24
REMARK    9  A    between atoms: _24  and  _25
REMARK   10  A    between atoms: _29  and  _30
REMARK   11  A    between atoms: _35  and  _37
REMARK   12  A    between atoms: _37  and  _38
REMARK   13  A    between atoms: _37  and  _40
REMARK   14  A    between atoms: _40  and  _41
REMARK   15  A    between atoms: _43  and  _45
REMARK   16  A    between atoms: _45  and  _46
REMARK   17  A    between atoms: _45  and  _48
REMARK   18  A    between atoms: _48  and  _49
REMARK   19  A    between atoms: _52  and  _54
REMARK   20  A    between atoms: _54  and  _55
REMARK   21  A    between atoms: _54  and  _57
REMARK   22  A    between atoms: _57  and  _58
REMARK   23  A    between atoms: _64  and  _66
REMARK   24  A    between atoms: _66  and  _67
REMARK   25  A    between atoms: _66  and  _69
REMARK   26  A    between atoms: _72  and  _74
REMARK   27  A    between atoms: _74  and  _75
REMARK   28  A    between atoms: _74  and  _77
REMARK   29  A    between atoms: _77  and  _78
REMARK   30  A    between atoms: _81  and  _83
REMARK   31  A    between atoms: _83  and  _84
REMARK   32  A    between atoms: _83  and  _86
REMARK   33  A    between atoms: _86  and  _87
REMARK   34  A    between atoms: _93  and  _95
REMARK   35  A    between atoms: _95  and  _96
REMARK   36  A    between atoms: _95  and  _98
REMARK   37  A    between atoms: _98  and  _99
REMARK   38  A    between atoms: _99  and  _100
REMARK   39  A    between atoms: _100  and  _101
REMARK   40  A    between atoms: _110  and  _112
REMARK   41  A    between atoms: _112  and  _113
REMARK   42  A    between atoms: _112  and  _115
REMARK   43  A    between atoms: _115  and  _116
REMARK   44  A    between atoms: _116  and  _117
REMARK   45  A    between atoms: _117  and  _118
REMARK   46  A    between atoms: _128  and  _129
REMARK   47  A    between atoms: _135  and  _136
REMARK   48  A    between atoms: _141  and  _143
REMARK   49  A    between atoms: _143  and  _144
REMARK   50  A    between atoms: _143  and  _146
REMARK   51  A    between atoms: _146  and  _147
REMARK   52  A    between atoms: _157  and  _159
REMARK   53  A    between atoms: _159  and  _160
REMARK   54  A    between atoms: _159  and  _162
REMARK   55  A    between atoms: _162  and  _163
REMARK   56  A    between atoms: _169  and  _171
REMARK   57  A    between atoms: _171  and  _172
REMARK   58  A    between atoms: _171  and  _174
REMARK   59  A    between atoms: _174  and  _175
REMARK   60  A    between atoms: _176  and  FE_434
REMARK   61  A    between atoms: _180  and  _182
REMARK   62  A    between atoms: _182  and  _183
REMARK   63  A    between atoms: _182  and  _185
REMARK   64  A    between atoms: _185  and  _186
REMARK   65  A    between atoms: _186  and  _187
REMARK   66  A    between atoms: _187  and  _188
REMARK   67  A    between atoms: _197  and  _199
REMARK   68  A    between atoms: _199  and  _200
REMARK   69  A    between atoms: _199  and  _202
REMARK   70  A    between atoms: _202  and  _203
REMARK   71  A    between atoms: _208  and  _210
REMARK   72  A    between atoms: _210  and  _211
REMARK   73  A    between atoms: _210  and  _213
REMARK   74  A    between atoms: _213  and  _214
REMARK   75  A    between atoms: _214  and  _215
REMARK   76  A    between atoms: _218  and  _220
REMARK   77  A    between atoms: _220  and  _221
REMARK   78  A    between atoms: _220  and  _223
REMARK   79  A    between atoms: _223  and  _224
REMARK   80  A    between atoms: _230  and  _232
REMARK   81  A    between atoms: _232  and  _233
REMARK   82  A    between atoms: _232  and  _235
REMARK   83  A    between atoms: _235  and  _236
REMARK   84  A    between atoms: _236  and  _237
REMARK   85  A    between atoms: _239  and  _241
REMARK   86  A    between atoms: _241  and  _242
REMARK   87  A    between atoms: _241  and  _244
REMARK   88  A    between atoms: _244  and  _245
REMARK   89  A    between atoms: _250  and  _251
REMARK   90  A    between atoms: _253  and  _255
REMARK   91  A    between atoms: _255  and  _256
REMARK   92  A    between atoms: _255  and  _258
REMARK   93  A    between atoms: _258  and  _259
REMARK   94  A    between atoms: _262  and  _264
REMARK   95  A    between atoms: _264  and  _265
REMARK   96  A    between atoms: _268  and  _270
REMARK   97  A    between atoms: _270  and  _271
REMARK   98  A    between atoms: _270  and  _273
REMARK   99  A    between atoms: _273  and  _274
REMARK  100  A    between atoms: _274  and  _275
REMARK  101  A    between atoms: _275  and  _276
REMARK  102  A    between atoms: _276  and  _277
REMARK  103  A    between atoms: _281  and  _283
REMARK  104  A    between atoms: _283  and  _284
REMARK  105  A    between atoms: _283  and  _286
REMARK  106  A    between atoms: _286  and  _287
REMARK  107  A    between atoms: _293  and  _295
REMARK  108  A    between atoms: _295  and  _296
REMARK  109  A    between atoms: _295  and  _298
REMARK  110  A    between atoms: _298  and  _299
REMARK  111  A    between atoms: _301  and  _303
REMARK  112  A    between atoms: _303  and  _304
REMARK  113  A    between atoms: _303  and  _306
REMARK  114  A    between atoms: _306  and  _307
REMARK  115  A    between atoms: _312  and  _314
REMARK  116  A    between atoms: _314  and  _315
REMARK  117  A    between atoms: _314  and  _317
REMARK  118  A    between atoms: _317  and  _318
REMARK  119  A    between atoms: _322  and  FE_434
REMARK  120  A    between atoms: _323  and  _325
REMARK  121  A    between atoms: _325  and  _326
REMARK  122  A    between atoms: _329  and  _330
REMARK  123  A    between atoms: _335  and  _337
REMARK  124  A    between atoms: _337  and  _338
REMARK  125  A    between atoms: _337  and  _340
REMARK  126  A    between atoms: _340  and  _341
REMARK  127  A    between atoms: _344  and  _346
REMARK  128  A    between atoms: _346  and  _347
REMARK  129  A    between atoms: _346  and  _349
REMARK  130  A    between atoms: _349  and  _350
REMARK  131  A    between atoms: _356  and  _358
REMARK  132  A    between atoms: _358  and  _359
REMARK  133  A    between atoms: _358  and  _361
REMARK  134  A    between atoms: _361  and  _362
REMARK  135  A    between atoms: _362  and  _363
REMARK  136  A    between atoms: _365  and  _367
REMARK  137  A    between atoms: _367  and  _368
REMARK  138  A    between atoms: _367  and  _370
REMARK  139  A    between atoms: _370  and  _371
REMARK  140  A    between atoms: _371  and  _372
REMARK  141  A    between atoms: _375  and  _377
REMARK  142  A    between atoms: _377  and  _378
REMARK  143  A    between atoms: _377  and  _380
REMARK  144  A    between atoms: _380  and  _381
REMARK  145  A    between atoms: _386  and  _387
REMARK  146  A    between atoms: _389  and  _391
REMARK  147  A    between atoms: _391  and  _392
REMARK  148  A    between atoms: _391  and  _394
REMARK  149  A    between atoms: _394  and  _395
REMARK  150  A    between atoms: _405  and  _407
REMARK  151  A    between atoms: _407  and  _408
REMARK  152  A    between atoms: _407  and  _410
REMARK  153  A    between atoms: _410  and  _411
REMARK  154  A    between atoms: _414  and  _416
REMARK  155  A    between atoms: _416  and  _417
REMARK  156  A    between atoms: _416  and  _419
REMARK  157  A    between atoms: _419  and  _420
REMARK  158  A    between atoms: _422  and  _424
REMARK  159  A    between atoms: _424  and  _425
REMARK  160  A    between atoms: _424  and  _427
REMARK  161  A    between atoms: _427  and  _428
REMARK                            x       y       z     vdW  Elec       q    Type
REMARK                         _______ _______ _______ _____ _____    ______ ____
ROOT
ATOM      1  O   HOH     1      12.659  49.636   0.878  0.00  0.00    +0.000 OA
ENDROOT
TORSDOF 0
REMARK  Name = ../refined-set-2016/4aq6/4aq6_pocket.pdb
REMARK  161 active torsions:
REMARK  status: ('A' for Active; 'I' for Inactive)
REMARK    1  A    between atoms: _1  and  _3
REMARK    2  A    between atoms: _3  and  _4
REMARK    3  A    between atoms: _3  and  _6
REMARK    4  A    between atoms: _6  and  _7
REMARK    5  A    between atoms: _13  and  _14
REMARK    6  A    between atoms: _19  and  _21
REMARK    7  A    between atoms: _21  and  _22
REMARK    8  A    between atoms: _21  and  _24
REMARK    9  A    between atoms: _24  and  _25
REMARK   10  A    between atoms: _29  and  _30
REMARK   11  A    between atoms: _35  and  _37
REMARK   12  A    between atoms: _37  and  _38
REMARK   13  A    between atoms: _37  and  _40
REMARK   14  A    between atoms: _40  and  _41
REMARK   15  A    between atoms: _43  and  _45
REMARK   16  A    between atoms: _45  and  _46
REMARK   17  A    between atoms: _45  and  _48
REMARK   18  A    between atoms: _48  and  _49
REMARK   19  A    between atoms: _52  and  _54
REMARK   20  A    between atoms: _54  and  _55
REMARK   21  A    between atoms: _54  and  _57
REMARK   22  A    between atoms: _57  and  _58
REMARK   23  A    between atoms: _64  and  _66
REMARK   24  A    between atoms: _66  and  _67
REMARK   25  A    between atoms: _66  and  _69
REMARK   26  A    between atoms: _72  and  _74
REMARK   27  A    between atoms: _74  and  _75
REMARK   28  A    between atoms: _74  and  _77
REMARK   29  A    between atoms: _77  and  _78
REMARK   30  A    between atoms: _81  and  _83
REMARK   31  A    between atoms: _83  and  _84
REMARK   32  A    between atoms: _83  and  _86
REMARK   33  A    between atoms: _86  and  _87
REMARK   34  A    between atoms: _93  and  _95
REMARK   35  A    between atoms: _95  and  _96
REMARK   36  A    between atoms: _95  and  _98
REMARK   37  A    between atoms: _98  and  _99
REMARK   38  A    between atoms: _99  and  _100
REMARK   39  A    between atoms: _100  and  _101
REMARK   40  A    between atoms: _110  and  _112
REMARK   41  A    between atoms: _112  and  _113
REMARK   42  A    between atoms: _112  and  _115
REMARK   43  A    between atoms: _115  and  _116
REMARK   44  A    between atoms: _116  and  _117
REMARK   45  A    between atoms: _117  and  _118
REMARK   46  A    between atoms: _128  and  _129
REMARK   47  A    between atoms: _135  and  _136
REMARK   48  A    between atoms: _141  and  _143
REMARK   49  A    between atoms: _143  and  _144
REMARK   50  A    between atoms: _143  and  _146
REMARK   51  A    between atoms: _146  and  _147
REMARK   52  A    between atoms: _157  and  _159
REMARK   53  A    between atoms: _159  and  _160
REMARK   54  A    between atoms: _159  and  _162
REMARK   55  A    between atoms: _162  and  _163
REMARK   56  A    between atoms: _169  and  _171
REMARK   57  A    between atoms: _171  and  _172
REMARK   58  A    between atoms: _171  and  _174
REMARK   59  A    between atoms: _174  and  _175
REMARK   60  A    between atoms: _176  and  FE_434
REMARK   61  A    between atoms: _180  and  _182
REMARK   62  A    between atoms: _182  and  _183
REMARK   63  A    between atoms: _182  and  _185
REMARK   64  A    between atoms: _185  and  _186
REMARK   65  A    between atoms: _186  and  _187
REMARK   66  A    between atoms: _187  and  _188
REMARK   67  A    between atoms: _197  and  _199
REMARK   68  A    between atoms: _199  and  _200
REMARK   69  A    between atoms: _199  and  _202
REMARK   70  A    between atoms: _202  and  _203
REMARK   71  A    between atoms: _208  and  _210
REMARK   72  A    between atoms: _210  and  _211
REMARK   73  A    between atoms: _210  and  _213
REMARK   74  A    between atoms: _213  and  _214
REMARK   75  A    between atoms: _214  and  _215
REMARK   76  A    between atoms: _218  and  _220
REMARK   77  A    between atoms: _220  and  _221
REMARK   78  A    between atoms: _220  and  _223
REMARK   79  A    between atoms: _223  and  _224
REMARK   80  A    between atoms: _230  and  _232
REMARK   81  A    between atoms: _232  and  _233
REMARK   82  A    between atoms: _232  and  _235
REMARK   83  A    between atoms: _235  and  _236
REMARK   84  A    between atoms: _236  and  _237
REMARK   85  A    between atoms: _239  and  _241
REMARK   86  A    between atoms: _241  and  _242
REMARK   87  A    between atoms: _241  and  _244
REMARK   88  A    between atoms: _244  and  _245
REMARK   89  A    between atoms: _250  and  _251
REMARK   90  A    between atoms: _253  and  _255
REMARK   91  A    between atoms: _255  and  _256
REMARK   92  A    between atoms: _255  and  _258
REMARK   93  A    between atoms: _258  and  _259
REMARK   94  A    between atoms: _262  and  _264
REMARK   95  A    between atoms: _264  and  _265
REMARK   96  A    between atoms: _268  and  _270
REMARK   97  A    between atoms: _270  and  _271
REMARK   98  A    between atoms: _270  and  _273
REMARK   99  A    between atoms: _273  and  _274
REMARK  100  A    between atoms: _274  and  _275
REMARK  101  A    between atoms: _275  and  _276
REMARK  102  A    between atoms: _276  and  _277
REMARK  103  A    between atoms: _281  and  _283
REMARK  104  A    between atoms: _283  and  _284
REMARK  105  A    between atoms: _283  and  _286
REMARK  106  A    between atoms: _286  and  _287
REMARK  107  A    between atoms: _293  and  _295
REMARK  108  A    between atoms: _295  and  _296
REMARK  109  A    between atoms: _295  and  _298
REMARK  110  A    between atoms: _298  and  _299
REMARK  111  A    between atoms: _301  and  _303
REMARK  112  A    between atoms: _303  and  _304
REMARK  113  A    between atoms: _303  and  _306
REMARK  114  A    between atoms: _306  and  _307
REMARK  115  A    between atoms: _312  and  _314
REMARK  116  A    between atoms: _314  and  _315
REMARK  117  A    between atoms: _314  and  _317
REMARK  118  A    between atoms: _317  and  _318
REMARK  119  A    between atoms: _322  and  FE_434
REMARK  120  A    between atoms: _323  and  _325
REMARK  121  A    between atoms: _325  and  _326
REMARK  122  A    between atoms: _329  and  _330
REMARK  123  A    between atoms: _335  and  _337
REMARK  124  A    between atoms: _337  and  _338
REMARK  125  A    between atoms: _337  and  _340
REMARK  126  A    between atoms: _340  and  _341
REMARK  127  A    between atoms: _344  and  _346
REMARK  128  A    between atoms: _346  and  _347
REMARK  129  A    between atoms: _346  and  _349
REMARK  130  A    between atoms: _349  and  _350
REMARK  131  A    between atoms: _356  and  _358
REMARK  132  A    between atoms: _358  and  _359
REMARK  133  A    between atoms: _358  and  _361
REMARK  134  A    between atoms: _361  and  _362
REMARK  135  A    between atoms: _362  and  _363
REMARK  136  A    between atoms: _365  and  _367
REMARK  137  A    between atoms: _367  and  _368
REMARK  138  A    between atoms: _367  and  _370
REMARK  139  A    between atoms: _370  and  _371
REMARK  140  A    between atoms: _371  and  _372
REMARK  141  A    between atoms: _375  and  _377
REMARK  142  A    between atoms: _377  and  _378
REMARK  143  A    between atoms: _377  and  _380
REMARK  144  A    between atoms: _380  and  _381
REMARK  145  A    between atoms: _386  and  _387
REMARK  146  A    between atoms: _389  and  _391
REMARK  147  A    between atoms: _391  and  _392
REMARK  148  A    between atoms: _391  and  _394
REMARK  149  A    between atoms: _394  and  _395
REMARK  150  A    between atoms: _405  and  _407
REMARK  151  A    between atoms: _407  and  _408
REMARK  152  A    between atoms: _407  and  _410
REMARK  153  A    between atoms: _410  and  _411
REMARK  154  A    between atoms: _414  and  _416
REMARK  155  A    between atoms: _416  and  _417
REMARK  156  A    between atoms: _416  and  _419
REMARK  157  A    between atoms: _419  and  _420
REMARK  158  A    between atoms: _422  and  _424
REMARK  159  A    between atoms: _424  and  _425
REMARK  160  A    between atoms: _424  and  _427
REMARK  161  A    between atoms: _427  and  _428
REMARK                            x       y       z     vdW  Elec       q    Type
REMARK                         _______ _______ _______ _____ _____    ______ ____
ROOT
ATOM      1  O   HOH     1      13.377  43.186   4.066  0.00  0.00    +0.000 OA
ENDROOT
TORSDOF 0
REMARK  Name = ../refined-set-2016/4aq6/4aq6_pocket.pdb
REMARK  161 active torsions:
REMARK  status: ('A' for Active; 'I' for Inactive)
REMARK    1  A    between atoms: _1  and  _3
REMARK    2  A    between atoms: _3  and  _4
REMARK    3  A    between atoms: _3  and  _6
REMARK    4  A    between atoms: _6  and  _7
REMARK    5  A    between atoms: _13  and  _14
REMARK    6  A    between atoms: _19  and  _21
REMARK    7  A    between atoms: _21  and  _22
REMARK    8  A    between atoms: _21  and  _24
REMARK    9  A    between atoms: _24  and  _25
REMARK   10  A    between atoms: _29  and  _30
REMARK   11  A    between atoms: _35  and  _37
REMARK   12  A    between atoms: _37  and  _38
REMARK   13  A    between atoms: _37  and  _40
REMARK   14  A    between atoms: _40  and  _41
REMARK   15  A    between atoms: _43  and  _45
REMARK   16  A    between atoms: _45  and  _46
REMARK   17  A    between atoms: _45  and  _48
REMARK   18  A    between atoms: _48  and  _49
REMARK   19  A    between atoms: _52  and  _54
REMARK   20  A    between atoms: _54  and  _55
REMARK   21  A    between atoms: _54  and  _57
REMARK   22  A    between atoms: _57  and  _58
REMARK   23  A    between atoms: _64  and  _66
REMARK   24  A    between atoms: _66  and  _67
REMARK   25  A    between atoms: _66  and  _69
REMARK   26  A    between atoms: _72  and  _74
REMARK   27  A    between atoms: _74  and  _75
REMARK   28  A    between atoms: _74  and  _77
REMARK   29  A    between atoms: _77  and  _78
REMARK   30  A    between atoms: _81  and  _83
REMARK   31  A    between atoms: _83  and  _84
REMARK   32  A    between atoms: _83  and  _86
REMARK   33  A    between atoms: _86  and  _87
REMARK   34  A    between atoms: _93  and  _95
REMARK   35  A    between atoms: _95  and  _96
REMARK   36  A    between atoms: _95  and  _98
REMARK   37  A    between atoms: _98  and  _99
REMARK   38  A    between atoms: _99  and  _100
REMARK   39  A    between atoms: _100  and  _101
REMARK   40  A    between atoms: _110  and  _112
REMARK   41  A    between atoms: _112  and  _113
REMARK   42  A    between atoms: _112  and  _115
REMARK   43  A    between atoms: _115  and  _116
REMARK   44  A    between atoms: _116  and  _117
REMARK   45  A    between atoms: _117  and  _118
REMARK   46  A    between atoms: _128  and  _129
REMARK   47  A    between atoms: _135  and  _136
REMARK   48  A    between atoms: _141  and  _143
REMARK   49  A    between atoms: _143  and  _144
REMARK   50  A    between atoms: _143  and  _146
REMARK   51  A    between atoms: _146  and  _147
REMARK   52  A    between atoms: _157  and  _159
REMARK   53  A    between atoms: _159  and  _160
REMARK   54  A    between atoms: _159  and  _162
REMARK   55  A    between atoms: _162  and  _163
REMARK   56  A    between atoms: _169  and  _171
REMARK   57  A    between atoms: _171  and  _172
REMARK   58  A    between atoms: _171  and  _174
REMARK   59  A    between atoms: _174  and  _175
REMARK   60  A    between atoms: _176  and  FE_434
REMARK   61  A    between atoms: _180  and  _182
REMARK   62  A    between atoms: _182  and  _183
REMARK   63  A    between atoms: _182  and  _185
REMARK   64  A    between atoms: _185  and  _186
REMARK   65  A    between atoms: _186  and  _187
REMARK   66  A    between atoms: _187  and  _188
REMARK   67  A    between atoms: _197  and  _199
REMARK   68  A    between atoms: _199  and  _200
REMARK   69  A    between atoms: _199  and  _202
REMARK   70  A    between atoms: _202  and  _203
REMARK   71  A    between atoms: _208  and  _210
REMARK   72  A    between atoms: _210  and  _211
REMARK   73  A    between atoms: _210  and  _213
REMARK   74  A    between atoms: _213  and  _214
REMARK   75  A    between atoms: _214  and  _215
REMARK   76  A    between atoms: _218  and  _220
REMARK   77  A    between atoms: _220  and  _221
REMARK   78  A    between atoms: _220  and  _223
REMARK   79  A    between atoms: _223  and  _224
REMARK   80  A    between atoms: _230  and  _232
REMARK   81  A    between atoms: _232  and  _233
REMARK   82  A    between atoms: _232  and  _235
REMARK   83  A    between atoms: _235  and  _236
REMARK   84  A    between atoms: _236  and  _237
REMARK   85  A    between atoms: _239  and  _241
REMARK   86  A    between atoms: _241  and  _242
REMARK   87  A    between atoms: _241  and  _244
REMARK   88  A    between atoms: _244  and  _245
REMARK   89  A    between atoms: _250  and  _251
REMARK   90  A    between atoms: _253  and  _255
REMARK   91  A    between atoms: _255  and  _256
REMARK   92  A    between atoms: _255  and  _258
REMARK   93  A    between atoms: _258  and  _259
REMARK   94  A    between atoms: _262  and  _264
REMARK   95  A    between atoms: _264  and  _265
REMARK   96  A    between atoms: _268  and  _270
REMARK   97  A    between atoms: _270  and  _271
REMARK   98  A    between atoms: _270  and  _273
REMARK   99  A    between atoms: _273  and  _274
REMARK  100  A    between atoms: _274  and  _275
REMARK  101  A    between atoms: _275  and  _276
REMARK  102  A    between atoms: _276  and  _277
REMARK  103  A    between atoms: _281  and  _283
REMARK  104  A    between atoms: _283  and  _284
REMARK  105  A    between atoms: _283  and  _286
REMARK  106  A    between atoms: _286  and  _287
REMARK  107  A    between atoms: _293  and  _295
REMARK  108  A    between atoms: _295  and  _296
REMARK  109  A    between atoms: _295  and  _298
REMARK  110  A    between atoms: _298  and  _299
REMARK  111  A    between atoms: _301  and  _303
REMARK  112  A    between atoms: _303  and  _304
REMARK  113  A    between atoms: _303  and  _306
REMARK  114  A    between atoms: _306  and  _307
REMARK  115  A    between atoms: _312  and  _314
REMARK  116  A    between atoms: _314  and  _315
REMARK  117  A    between atoms: _314  and  _317
REMARK  118  A    between atoms: _317  and  _318
REMARK  119  A    between atoms: _322  and  FE_434
REMARK  120  A    between atoms: _323  and  _325
REMARK  121  A    between atoms: _325  and  _326
REMARK  122  A    between atoms: _329  and  _330
REMARK  123  A    between atoms: _335  and  _337
REMARK  124  A    between atoms: _337  and  _338
REMARK  125  A    between atoms: _337  and  _340
REMARK  126  A    between atoms: _340  and  _341
REMARK  127  A    between atoms: _344  and  _346
REMARK  128  A    between atoms: _346  and  _347
REMARK  129  A    between atoms: _346  and  _349
REMARK  130  A    between atoms: _349  and  _350
REMARK  131  A    between atoms: _356  and  _358
REMARK  132  A    between atoms: _358  and  _359
REMARK  133  A    between atoms: _358  and  _361
REMARK  134  A    between atoms: _361  and  _362
REMARK  135  A    between atoms: _362  and  _363
REMARK  136  A    between atoms: _365  and  _367
REMARK  137  A    between atoms: _367  and  _368
REMARK  138  A    between atoms: _367  and  _370
REMARK  139  A    between atoms: _370  and  _371
REMARK  140  A    between atoms: _371  and  _372
REMARK  141  A    between atoms: _375  and  _377
REMARK  142  A    between atoms: _377  and  _378
REMARK  143  A    between atoms: _377  and  _380
REMARK  144  A    between atoms: _380  and  _381
REMARK  145  A    between atoms: _386  and  _387
REMARK  146  A    between atoms: _389  and  _391
REMARK  147  A    between atoms: _391  and  _392
REMARK  148  A    between atoms: _391  and  _394
REMARK  149  A    between atoms: _394  and  _395
REMARK  150  A    between atoms: _405  and  _407
REMARK  151  A    between atoms: _407  and  _408
REMARK  152  A    between atoms: _407  and  _410
REMARK  153  A    between atoms: _410  and  _411
REMARK  154  A    between atoms: _414  and  _416
REMARK  155  A    between atoms: _416  and  _417
REMARK  156  A    between atoms: _416  and  _419
REMARK  157  A    between atoms: _419  and  _420
REMARK  158  A    between atoms: _422  and  _424
REMARK  159  A    between atoms: _424  and  _425
REMARK  160  A    between atoms: _424  and  _427
REMARK  161  A    between atoms: _427  and  _428
REMARK                            x       y       z     vdW  Elec       q    Type
REMARK                         _______ _______ _______ _____ _____    ______ ____
ROOT
ATOM      1  O   HOH     1      15.196  43.848   1.958  0.00  0.00    +0.000 OA
ENDROOT
TORSDOF 0
REMARK  Name = ../refined-set-2016/4aq6/4aq6_pocket.pdb
REMARK  161 active torsions:
REMARK  status: ('A' for Active; 'I' for Inactive)
REMARK    1  A    between atoms: _1  and  _3
REMARK    2  A    between atoms: _3  and  _4
REMARK    3  A    between atoms: _3  and  _6
REMARK    4  A    between atoms: _6  and  _7
REMARK    5  A    between atoms: _13  and  _14
REMARK    6  A    between atoms: _19  and  _21
REMARK    7  A    between atoms: _21  and  _22
REMARK    8  A    between atoms: _21  and  _24
REMARK    9  A    between atoms: _24  and  _25
REMARK   10  A    between atoms: _29  and  _30
REMARK   11  A    between atoms: _35  and  _37
REMARK   12  A    between atoms: _37  and  _38
REMARK   13  A    between atoms: _37  and  _40
REMARK   14  A    between atoms: _40  and  _41
REMARK   15  A    between atoms: _43  and  _45
REMARK   16  A    between atoms: _45  and  _46
REMARK   17  A    between atoms: _45  and  _48
REMARK   18  A    between atoms: _48  and  _49
REMARK   19  A    between atoms: _52  and  _54
REMARK   20  A    between atoms: _54  and  _55
REMARK   21  A    between atoms: _54  and  _57
REMARK   22  A    between atoms: _57  and  _58
REMARK   23  A    between atoms: _64  and  _66
REMARK   24  A    between atoms: _66  and  _67
REMARK   25  A    between atoms: _66  and  _69
REMARK   26  A    between atoms: _72  and  _74
REMARK   27  A    between atoms: _74  and  _75
REMARK   28  A    between atoms: _74  and  _77
REMARK   29  A    between atoms: _77  and  _78
REMARK   30  A    between atoms: _81  and  _83
REMARK   31  A    between atoms: _83  and  _84
REMARK   32  A    between atoms: _83  and  _86
REMARK   33  A    between atoms: _86  and  _87
REMARK   34  A    between atoms: _93  and  _95
REMARK   35  A    between atoms: _95  and  _96
REMARK   36  A    between atoms: _95  and  _98
REMARK   37  A    between atoms: _98  and  _99
REMARK   38  A    between atoms: _99  and  _100
REMARK   39  A    between atoms: _100  and  _101
REMARK   40  A    between atoms: _110  and  _112
REMARK   41  A    between atoms: _112  and  _113
REMARK   42  A    between atoms: _112  and  _115
REMARK   43  A    between atoms: _115  and  _116
REMARK   44  A    between atoms: _116  and  _117
REMARK   45  A    between atoms: _117  and  _118
REMARK   46  A    between atoms: _128  and  _129
REMARK   47  A    between atoms: _135  and  _136
REMARK   48  A    between atoms: _141  and  _143
REMARK   49  A    between atoms: _143  and  _144
REMARK   50  A    between atoms: _143  and  _146
REMARK   51  A    between atoms: _146  and  _147
REMARK   52  A    between atoms: _157  and  _159
REMARK   53  A    between atoms: _159  and  _160
REMARK   54  A    between atoms: _159  and  _162
REMARK   55  A    between atoms: _162  and  _163
REMARK   56  A    between atoms: _169  and  _171
REMARK   57  A    between atoms: _171  and  _172
REMARK   58  A    between atoms: _171  and  _174
REMARK   59  A    between atoms: _174  and  _175
REMARK   60  A    between atoms: _176  and  FE_434
REMARK   61  A    between atoms: _180  and  _182
REMARK   62  A    between atoms: _182  and  _183
REMARK   63  A    between atoms: _182  and  _185
REMARK   64  A    between atoms: _185  and  _186
REMARK   65  A    between atoms: _186  and  _187
REMARK   66  A    between atoms: _187  and  _188
REMARK   67  A    between atoms: _197  and  _199
REMARK   68  A    between atoms: _199  and  _200
REMARK   69  A    between atoms: _199  and  _202
REMARK   70  A    between atoms: _202  and  _203
REMARK   71  A    between atoms: _208  and  _210
REMARK   72  A    between atoms: _210  and  _211
REMARK   73  A    between atoms: _210  and  _213
REMARK   74  A    between atoms: _213  and  _214
REMARK   75  A    between atoms: _214  and  _215
REMARK   76  A    between atoms: _218  and  _220
REMARK   77  A    between atoms: _220  and  _221
REMARK   78  A    between atoms: _220  and  _223
REMARK   79  A    between atoms: _223  and  _224
REMARK   80  A    between atoms: _230  and  _232
REMARK   81  A    between atoms: _232  and  _233
REMARK   82  A    between atoms: _232  and  _235
REMARK   83  A    between atoms: _235  and  _236
REMARK   84  A    between atoms: _236  and  _237
REMARK   85  A    between atoms: _239  and  _241
REMARK   86  A    between atoms: _241  and  _242
REMARK   87  A    between atoms: _241  and  _244
REMARK   88  A    between atoms: _244  and  _245
REMARK   89  A    between atoms: _250  and  _251
REMARK   90  A    between atoms: _253  and  _255
REMARK   91  A    between atoms: _255  and  _256
REMARK   92  A    between atoms: _255  and  _258
REMARK   93  A    between atoms: _258  and  _259
REMARK   94  A    between atoms: _262  and  _264
REMARK   95  A    between atoms: _264  and  _265
REMARK   96  A    between atoms: _268  and  _270
REMARK   97  A    between atoms: _270  and  _271
REMARK   98  A    between atoms: _270  and  _273
REMARK   99  A    between atoms: _273  and  _274
REMARK  100  A    between atoms: _274  and  _275
REMARK  101  A    between atoms: _275  and  _276
REMARK  102  A    between atoms: _276  and  _277
REMARK  103  A    between atoms: _281  and  _283
REMARK  104  A    between atoms: _283  and  _284
REMARK  105  A    between atoms: _283  and  _286
REMARK  106  A    between atoms: _286  and  _287
REMARK  107  A    between atoms: _293  and  _295
REMARK  108  A    between atoms: _295  and  _296
REMARK  109  A    between atoms: _295  and  _298
REMARK  110  A    between atoms: _298  and  _299
REMARK  111  A    between atoms: _301  and  _303
REMARK  112  A    between atoms: _303  and  _304
REMARK  113  A    between atoms: _303  and  _306
REMARK  114  A    between atoms: _306  and  _307
REMARK  115  A    between atoms: _312  and  _314
REMARK  116  A    between atoms: _314  and  _315
REMARK  117  A    between atoms: _314  and  _317
REMARK  118  A    between atoms: _317  and  _318
REMARK  119  A    between atoms: _322  and  FE_434
REMARK  120  A    between atoms: _323  and  _325
REMARK  121  A    between atoms: _325  and  _326
REMARK  122  A    between atoms: _329  and  _330
REMARK  123  A    between atoms: _335  and  _337
REMARK  124  A    between atoms: _337  and  _338
REMARK  125  A    between atoms: _337  and  _340
REMARK  126  A    between atoms: _340  and  _341
REMARK  127  A    between atoms: _344  and  _346
REMARK  128  A    between atoms: _346  and  _347
REMARK  129  A    between atoms: _346  and  _349
REMARK  130  A    between atoms: _349  and  _350
REMARK  131  A    between atoms: _356  and  _358
REMARK  132  A    between atoms: _358  and  _359
REMARK  133  A    between atoms: _358  and  _361
REMARK  134  A    between atoms: _361  and  _362
REMARK  135  A    between atoms: _362  and  _363
REMARK  136  A    between atoms: _365  and  _367
REMARK  137  A    between atoms: _367  and  _368
REMARK  138  A    between atoms: _367  and  _370
REMARK  139  A    between atoms: _370  and  _371
REMARK  140  A    between atoms: _371  and  _372
REMARK  141  A    between atoms: _375  and  _377
REMARK  142  A    between atoms: _377  and  _378
REMARK  143  A    between atoms: _377  and  _380
REMARK  144  A    between atoms: _380  and  _381
REMARK  145  A    between atoms: _386  and  _387
REMARK  146  A    between atoms: _389  and  _391
REMARK  147  A    between atoms: _391  and  _392
REMARK  148  A    between atoms: _391  and  _394
REMARK  149  A    between atoms: _394  and  _395
REMARK  150  A    between atoms: _405  and  _407
REMARK  151  A    between atoms: _407  and  _408
REMARK  152  A    between atoms: _407  and  _410
REMARK  153  A    between atoms: _410  and  _411
REMARK  154  A    between atoms: _414  and  _416
REMARK  155  A    between atoms: _416  and  _417
REMARK  156  A    between atoms: _416  and  _419
REMARK  157  A    between atoms: _419  and  _420
REMARK  158  A    between atoms: _422  and  _424
REMARK  159  A    between atoms: _424  and  _425
REMARK  160  A    between atoms: _424  and  _427
REMARK  161  A    between atoms: _427  and  _428
REMARK                            x       y       z     vdW  Elec       q    Type
REMARK                         _______ _______ _______ _____ _____    ______ ____
ROOT
ATOM      1  O   HOH     1      12.704  44.823  -3.834  0.00  0.00    +0.000 OA
ENDROOT
TORSDOF 0
REMARK  Name = ../refined-set-2016/4aq6/4aq6_pocket.pdb
REMARK  161 active torsions:
REMARK  status: ('A' for Active; 'I' for Inactive)
REMARK    1  A    between atoms: _1  and  _3
REMARK    2  A    between atoms: _3  and  _4
REMARK    3  A    between atoms: _3  and  _6
REMARK    4  A    between atoms: _6  and  _7
REMARK    5  A    between atoms: _13  and  _14
REMARK    6  A    between atoms: _19  and  _21
REMARK    7  A    between atoms: _21  and  _22
REMARK    8  A    between atoms: _21  and  _24
REMARK    9  A    between atoms: _24  and  _25
REMARK   10  A    between atoms: _29  and  _30
REMARK   11  A    between atoms: _35  and  _37
REMARK   12  A    between atoms: _37  and  _38
REMARK   13  A    between atoms: _37  and  _40
REMARK   14  A    between atoms: _40  and  _41
REMARK   15  A    between atoms: _43  and  _45
REMARK   16  A    between atoms: _45  and  _46
REMARK   17  A    between atoms: _45  and  _48
REMARK   18  A    between atoms: _48  and  _49
REMARK   19  A    between atoms: _52  and  _54
REMARK   20  A    between atoms: _54  and  _55
REMARK   21  A    between atoms: _54  and  _57
REMARK   22  A    between atoms: _57  and  _58
REMARK   23  A    between atoms: _64  and  _66
REMARK   24  A    between atoms: _66  and  _67
REMARK   25  A    between atoms: _66  and  _69
REMARK   26  A    between atoms: _72  and  _74
REMARK   27  A    between atoms: _74  and  _75
REMARK   28  A    between atoms: _74  and  _77
REMARK   29  A    between atoms: _77  and  _78
REMARK   30  A    between atoms: _81  and  _83
REMARK   31  A    between atoms: _83  and  _84
REMARK   32  A    between atoms: _83  and  _86
REMARK   33  A    between atoms: _86  and  _87
REMARK   34  A    between atoms: _93  and  _95
REMARK   35  A    between atoms: _95  and  _96
REMARK   36  A    between atoms: _95  and  _98
REMARK   37  A    between atoms: _98  and  _99
REMARK   38  A    between atoms: _99  and  _100
REMARK   39  A    between atoms: _100  and  _101
REMARK   40  A    between atoms: _110  and  _112
REMARK   41  A    between atoms: _112  and  _113
REMARK   42  A    between atoms: _112  and  _115
REMARK   43  A    between atoms: _115  and  _116
REMARK   44  A    between atoms: _116  and  _117
REMARK   45  A    between atoms: _117  and  _118
REMARK   46  A    between atoms: _128  and  _129
REMARK   47  A    between atoms: _135  and  _136
REMARK   48  A    between atoms: _141  and  _143
REMARK   49  A    between atoms: _143  and  _144
REMARK   50  A    between atoms: _143  and  _146
REMARK   51  A    between atoms: _146  and  _147
REMARK   52  A    between atoms: _157  and  _159
REMARK   53  A    between atoms: _159  and  _160
REMARK   54  A    between atoms: _159  and  _162
REMARK   55  A    between atoms: _162  and  _163
REMARK   56  A    between atoms: _169  and  _171
REMARK   57  A    between atoms: _171  and  _172
REMARK   58  A    between atoms: _171  and  _174
REMARK   59  A    between atoms: _174  and  _175
REMARK   60  A    between atoms: _176  and  FE_434
REMARK   61  A    between atoms: _180  and  _182
REMARK   62  A    between atoms: _182  and  _183
REMARK   63  A    between atoms: _182  and  _185
REMARK   64  A    between atoms: _185  and  _186
REMARK   65  A    between atoms: _186  and  _187
REMARK   66  A    between atoms: _187  and  _188
REMARK   67  A    between atoms: _197  and  _199
REMARK   68  A    between atoms: _199  and  _200
REMARK   69  A    between atoms: _199  and  _202
REMARK   70  A    between atoms: _202  and  _203
REMARK   71  A    between atoms: _208  and  _210
REMARK   72  A    between atoms: _210  and  _211
REMARK   73  A    between atoms: _210  and  _213
REMARK   74  A    between atoms: _213  and  _214
REMARK   75  A    between atoms: _214  and  _215
REMARK   76  A    between atoms: _218  and  _220
REMARK   77  A    between atoms: _220  and  _221
REMARK   78  A    between atoms: _220  and  _223
REMARK   79  A    between atoms: _223  and  _224
REMARK   80  A    between atoms: _230  and  _232
REMARK   81  A    between atoms: _232  and  _233
REMARK   82  A    between atoms: _232  and  _235
REMARK   83  A    between atoms: _235  and  _236
REMARK   84  A    between atoms: _236  and  _237
REMARK   85  A    between atoms: _239  and  _241
REMARK   86  A    between atoms: _241  and  _242
REMARK   87  A    between atoms: _241  and  _244
REMARK   88  A    between atoms: _244  and  _245
REMARK   89  A    between atoms: _250  and  _251
REMARK   90  A    between atoms: _253  and  _255
REMARK   91  A    between atoms: _255  and  _256
REMARK   92  A    between atoms: _255  and  _258
REMARK   93  A    between atoms: _258  and  _259
REMARK   94  A    between atoms: _262  and  _264
REMARK   95  A    between atoms: _264  and  _265
REMARK   96  A    between atoms: _268  and  _270
REMARK   97  A    between atoms: _270  and  _271
REMARK   98  A    between atoms: _270  and  _273
REMARK   99  A    between atoms: _273  and  _274
REMARK  100  A    between atoms: _274  and  _275
REMARK  101  A    between atoms: _275  and  _276
REMARK  102  A    between atoms: _276  and  _277
REMARK  103  A    between atoms: _281  and  _283
REMARK  104  A    between atoms: _283  and  _284
REMARK  105  A    between atoms: _283  and  _286
REMARK  106  A    between atoms: _286  and  _287
REMARK  107  A    between atoms: _293  and  _295
REMARK  108  A    between atoms: _295  and  _296
REMARK  109  A    between atoms: _295  and  _298
REMARK  110  A    between atoms: _298  and  _299
REMARK  111  A    between atoms: _301  and  _303
REMARK  112  A    between atoms: _303  and  _304
REMARK  113  A    between atoms: _303  and  _306
REMARK  114  A    between atoms: _306  and  _307
REMARK  115  A    between atoms: _312  and  _314
REMARK  116  A    between atoms: _314  and  _315
REMARK  117  A    between atoms: _314  and  _317
REMARK  118  A    between atoms: _317  and  _318
REMARK  119  A    between atoms: _322  and  FE_434
REMARK  120  A    between atoms: _323  and  _325
REMARK  121  A    between atoms: _325  and  _326
REMARK  122  A    between atoms: _329  and  _330
REMARK  123  A    between atoms: _335  and  _337
REMARK  124  A    between atoms: _337  and  _338
REMARK  125  A    between atoms: _337  and  _340
REMARK  126  A    between atoms: _340  and  _341
REMARK  127  A    between atoms: _344  and  _346
REMARK  128  A    between atoms: _346  and  _347
REMARK  129  A    between atoms: _346  and  _349
REMARK  130  A    between atoms: _349  and  _350
REMARK  131  A    between atoms: _356  and  _358
REMARK  132  A    between atoms: _358  and  _359
REMARK  133  A    between atoms: _358  and  _361
REMARK  134  A    between atoms: _361  and  _362
REMARK  135  A    between atoms: _362  and  _363
REMARK  136  A    between atoms: _365  and  _367
REMARK  137  A    between atoms: _367  and  _368
REMARK  138  A    between atoms: _367  and  _370
REMARK  139  A    between atoms: _370  and  _371
REMARK  140  A    between atoms: _371  and  _372
REMARK  141  A    between atoms: _375  and  _377
REMARK  142  A    between atoms: _377  and  _378
REMARK  143  A    between atoms: _377  and  _380
REMARK  144  A    between atoms: _380  and  _381
REMARK  145  A    between atoms: _386  and  _387
REMARK  146  A    between atoms: _389  and  _391
REMARK  147  A    between atoms: _391  and  _392
REMARK  148  A    between atoms: _391  and  _394
REMARK  149  A    between atoms: _394  and  _395
REMARK  150  A    between atoms: _405  and  _407
REMARK  151  A    between atoms: _407  and  _408
REMARK  152  A    between atoms: _407  and  _410
REMARK  153  A    between atoms: _410  and  _411
REMARK  154  A    between atoms: _414  and  _416
REMARK  155  A    between atoms: _416  and  _417
REMARK  156  A    between atoms: _416  and  _419
REMARK  157  A    between atoms: _419  and  _420
REMARK  158  A    between atoms: _422  and  _424
REMARK  159  A    between atoms: _424  and  _425
REMARK  160  A    between atoms: _424  and  _427
REMARK  161  A    between atoms: _427  and  _428
REMARK                            x       y       z     vdW  Elec       q    Type
REMARK                         _______ _______ _______ _____ _____    ______ ____
ROOT
ATOM      1  O   HOH     1      19.245  38.335  -4.032  0.00  0.00    +0.000 OA
ENDROOT
TORSDOF 0
REMARK  Name = ../refined-set-2016/4aq6/4aq6_pocket.pdb
REMARK  161 active torsions:
REMARK  status: ('A' for Active; 'I' for Inactive)
REMARK    1  A    between atoms: _1  and  _3
REMARK    2  A    between atoms: _3  and  _4
REMARK    3  A    between atoms: _3  and  _6
REMARK    4  A    between atoms: _6  and  _7
REMARK    5  A    between atoms: _13  and  _14
REMARK    6  A    between atoms: _19  and  _21
REMARK    7  A    between atoms: _21  and  _22
REMARK    8  A    between atoms: _21  and  _24
REMARK    9  A    between atoms: _24  and  _25
REMARK   10  A    between atoms: _29  and  _30
REMARK   11  A    between atoms: _35  and  _37
REMARK   12  A    between atoms: _37  and  _38
REMARK   13  A    between atoms: _37  and  _40
REMARK   14  A    between atoms: _40  and  _41
REMARK   15  A    between atoms: _43  and  _45
REMARK   16  A    between atoms: _45  and  _46
REMARK   17  A    between atoms: _45  and  _48
REMARK   18  A    between atoms: _48  and  _49
REMARK   19  A    between atoms: _52  and  _54
REMARK   20  A    between atoms: _54  and  _55
REMARK   21  A    between atoms: _54  and  _57
REMARK   22  A    between atoms: _57  and  _58
REMARK   23  A    between atoms: _64  and  _66
REMARK   24  A    between atoms: _66  and  _67
REMARK   25  A    between atoms: _66  and  _69
REMARK   26  A    between atoms: _72  and  _74
REMARK   27  A    between atoms: _74  and  _75
REMARK   28  A    between atoms: _74  and  _77
REMARK   29  A    between atoms: _77  and  _78
REMARK   30  A    between atoms: _81  and  _83
REMARK   31  A    between atoms: _83  and  _84
REMARK   32  A    between atoms: _83  and  _86
REMARK   33  A    between atoms: _86  and  _87
REMARK   34  A    between atoms: _93  and  _95
REMARK   35  A    between atoms: _95  and  _96
REMARK   36  A    between atoms: _95  and  _98
REMARK   37  A    between atoms: _98  and  _99
REMARK   38  A    between atoms: _99  and  _100
REMARK   39  A    between atoms: _100  and  _101
REMARK   40  A    between atoms: _110  and  _112
REMARK   41  A    between atoms: _112  and  _113
REMARK   42  A    between atoms: _112  and  _115
REMARK   43  A    between atoms: _115  and  _116
REMARK   44  A    between atoms: _116  and  _117
REMARK   45  A    between atoms: _117  and  _118
REMARK   46  A    between atoms: _128  and  _129
REMARK   47  A    between atoms: _135  and  _136
REMARK   48  A    between atoms: _141  and  _143
REMARK   49  A    between atoms: _143  and  _144
REMARK   50  A    between atoms: _143  and  _146
REMARK   51  A    between atoms: _146  and  _147
REMARK   52  A    between atoms: _157  and  _159
REMARK   53  A    between atoms: _159  and  _160
REMARK   54  A    between atoms: _159  and  _162
REMARK   55  A    between atoms: _162  and  _163
REMARK   56  A    between atoms: _169  and  _171
REMARK   57  A    between atoms: _171  and  _172
REMARK   58  A    between atoms: _171  and  _174
REMARK   59  A    between atoms: _174  and  _175
REMARK   60  A    between atoms: _176  and  FE_434
REMARK   61  A    between atoms: _180  and  _182
REMARK   62  A    between atoms: _182  and  _183
REMARK   63  A    between atoms: _182  and  _185
REMARK   64  A    between atoms: _185  and  _186
REMARK   65  A    between atoms: _186  and  _187
REMARK   66  A    between atoms: _187  and  _188
REMARK   67  A    between atoms: _197  and  _199
REMARK   68  A    between atoms: _199  and  _200
REMARK   69  A    between atoms: _199  and  _202
REMARK   70  A    between atoms: _202  and  _203
REMARK   71  A    between atoms: _208  and  _210
REMARK   72  A    between atoms: _210  and  _211
REMARK   73  A    between atoms: _210  and  _213
REMARK   74  A    between atoms: _213  and  _214
REMARK   75  A    between atoms: _214  and  _215
REMARK   76  A    between atoms: _218  and  _220
REMARK   77  A    between atoms: _220  and  _221
REMARK   78  A    between atoms: _220  and  _223
REMARK   79  A    between atoms: _223  and  _224
REMARK   80  A    between atoms: _230  and  _232
REMARK   81  A    between atoms: _232  and  _233
REMARK   82  A    between atoms: _232  and  _235
REMARK   83  A    between atoms: _235  and  _236
REMARK   84  A    between atoms: _236  and  _237
REMARK   85  A    between atoms: _239  and  _241
REMARK   86  A    between atoms: _241  and  _242
REMARK   87  A    between atoms: _241  and  _244
REMARK   88  A    between atoms: _244  and  _245
REMARK   89  A    between atoms: _250  and  _251
REMARK   90  A    between atoms: _253  and  _255
REMARK   91  A    between atoms: _255  and  _256
REMARK   92  A    between atoms: _255  and  _258
REMARK   93  A    between atoms: _258  and  _259
REMARK   94  A    between atoms: _262  and  _264
REMARK   95  A    between atoms: _264  and  _265
REMARK   96  A    between atoms: _268  and  _270
REMARK   97  A    between atoms: _270  and  _271
REMARK   98  A    between atoms: _270  and  _273
REMARK   99  A    between atoms: _273  and  _274
REMARK  100  A    between atoms: _274  and  _275
REMARK  101  A    between atoms: _275  and  _276
REMARK  102  A    between atoms: _276  and  _277
REMARK  103  A    between atoms: _281  and  _283
REMARK  104  A    between atoms: _283  and  _284
REMARK  105  A    between atoms: _283  and  _286
REMARK  106  A    between atoms: _286  and  _287
REMARK  107  A    between atoms: _293  and  _295
REMARK  108  A    between atoms: _295  and  _296
REMARK  109  A    between atoms: _295  and  _298
REMARK  110  A    between atoms: _298  and  _299
REMARK  111  A    between atoms: _301  and  _303
REMARK  112  A    between atoms: _303  and  _304
REMARK  113  A    between atoms: _303  and  _306
REMARK  114  A    between atoms: _306  and  _307
REMARK  115  A    between atoms: _312  and  _314
REMARK  116  A    between atoms: _314  and  _315
REMARK  117  A    between atoms: _314  and  _317
REMARK  118  A    between atoms: _317  and  _318
REMARK  119  A    between atoms: _322  and  FE_434
REMARK  120  A    between atoms: _323  and  _325
REMARK  121  A    between atoms: _325  and  _326
REMARK  122  A    between atoms: _329  and  _330
REMARK  123  A    between atoms: _335  and  _337
REMARK  124  A    between atoms: _337  and  _338
REMARK  125  A    between atoms: _337  and  _340
REMARK  126  A    between atoms: _340  and  _341
REMARK  127  A    between atoms: _344  and  _346
REMARK  128  A    between atoms: _346  and  _347
REMARK  129  A    between atoms: _346  and  _349
REMARK  130  A    between atoms: _349  and  _350
REMARK  131  A    between atoms: _356  and  _358
REMARK  132  A    between atoms: _358  and  _359
REMARK  133  A    between atoms: _358  and  _361
REMARK  134  A    between atoms: _361  and  _362
REMARK  135  A    between atoms: _362  and  _363
REMARK  136  A    between atoms: _365  and  _367
REMARK  137  A    between atoms: _367  and  _368
REMARK  138  A    between atoms: _367  and  _370
REMARK  139  A    between atoms: _370  and  _371
REMARK  140  A    between atoms: _371  and  _372
REMARK  141  A    between atoms: _375  and  _377
REMARK  142  A    between atoms: _377  and  _378
REMARK  143  A    between atoms: _377  and  _380
REMARK  144  A    between atoms: _380  and  _381
REMARK  145  A    between atoms: _386  and  _387
REMARK  146  A    between atoms: _389  and  _391
REMARK  147  A    between atoms: _391  and  _392
REMARK  148  A    between atoms: _391  and  _394
REMARK  149  A    between atoms: _394  and  _395
REMARK  150  A    between atoms: _405  and  _407
REMARK  151  A    between atoms: _407  and  _408
REMARK  152  A    between atoms: _407  and  _410
REMARK  153  A    between atoms: _410  and  _411
REMARK  154  A    between atoms: _414  and  _416
REMARK  155  A    between atoms: _416  and  _417
REMARK  156  A    between atoms: _416  and  _419
REMARK  157  A    between atoms: _419  and  _420
REMARK  158  A    between atoms: _422  and  _424
REMARK  159  A    between atoms: _424  and  _425
REMARK  160  A    between atoms: _424  and  _427
REMARK  161  A    between atoms: _427  and  _428
REMARK                            x       y       z     vdW  Elec       q    Type
REMARK                         _______ _______ _______ _____ _____    ______ ____
ROOT
ATOM      1  O   HOH     1      18.246  41.303   3.745  0.00  0.00    +0.000 OA
ENDROOT
TORSDOF 0
REMARK  Name = ../refined-set-2016/4aq6/4aq6_pocket.pdb
REMARK  161 active torsions:
REMARK  status: ('A' for Active; 'I' for Inactive)
REMARK    1  A    between atoms: _1  and  _3
REMARK    2  A    between atoms: _3  and  _4
REMARK    3  A    between atoms: _3  and  _6
REMARK    4  A    between atoms: _6  and  _7
REMARK    5  A    between atoms: _13  and  _14
REMARK    6  A    between atoms: _19  and  _21
REMARK    7  A    between atoms: _21  and  _22
REMARK    8  A    between atoms: _21  and  _24
REMARK    9  A    between atoms: _24  and  _25
REMARK   10  A    between atoms: _29  and  _30
REMARK   11  A    between atoms: _35  and  _37
REMARK   12  A    between atoms: _37  and  _38
REMARK   13  A    between atoms: _37  and  _40
REMARK   14  A    between atoms: _40  and  _41
REMARK   15  A    between atoms: _43  and  _45
REMARK   16  A    between atoms: _45  and  _46
REMARK   17  A    between atoms: _45  and  _48
REMARK   18  A    between atoms: _48  and  _49
REMARK   19  A    between atoms: _52  and  _54
REMARK   20  A    between atoms: _54  and  _55
REMARK   21  A    between atoms: _54  and  _57
REMARK   22  A    between atoms: _57  and  _58
REMARK   23  A    between atoms: _64  and  _66
REMARK   24  A    between atoms: _66  and  _67
REMARK   25  A    between atoms: _66  and  _69
REMARK   26  A    between atoms: _72  and  _74
REMARK   27  A    between atoms: _74  and  _75
REMARK   28  A    between atoms: _74  and  _77
REMARK   29  A    between atoms: _77  and  _78
REMARK   30  A    between atoms: _81  and  _83
REMARK   31  A    between atoms: _83  and  _84
REMARK   32  A    between atoms: _83  and  _86
REMARK   33  A    between atoms: _86  and  _87
REMARK   34  A    between atoms: _93  and  _95
REMARK   35  A    between atoms: _95  and  _96
REMARK   36  A    between atoms: _95  and  _98
REMARK   37  A    between atoms: _98  and  _99
REMARK   38  A    between atoms: _99  and  _100
REMARK   39  A    between atoms: _100  and  _101
REMARK   40  A    between atoms: _110  and  _112
REMARK   41  A    between atoms: _112  and  _113
REMARK   42  A    between atoms: _112  and  _115
REMARK   43  A    between atoms: _115  and  _116
REMARK   44  A    between atoms: _116  and  _117
REMARK   45  A    between atoms: _117  and  _118
REMARK   46  A    between atoms: _128  and  _129
REMARK   47  A    between atoms: _135  and  _136
REMARK   48  A    between atoms: _141  and  _143
REMARK   49  A    between atoms: _143  and  _144
REMARK   50  A    between atoms: _143  and  _146
REMARK   51  A    between atoms: _146  and  _147
REMARK   52  A    between atoms: _157  and  _159
REMARK   53  A    between atoms: _159  and  _160
REMARK   54  A    between atoms: _159  and  _162
REMARK   55  A    between atoms: _162  and  _163
REMARK   56  A    between atoms: _169  and  _171
REMARK   57  A    between atoms: _171  and  _172
REMARK   58  A    between atoms: _171  and  _174
REMARK   59  A    between atoms: _174  and  _175
REMARK   60  A    between atoms: _176  and  FE_434
REMARK   61  A    between atoms: _180  and  _182
REMARK   62  A    between atoms: _182  and  _183
REMARK   63  A    between atoms: _182  and  _185
REMARK   64  A    between atoms: _185  and  _186
REMARK   65  A    between atoms: _186  and  _187
REMARK   66  A    between atoms: _187  and  _188
REMARK   67  A    between atoms: _197  and  _199
REMARK   68  A    between atoms: _199  and  _200
REMARK   69  A    between atoms: _199  and  _202
REMARK   70  A    between atoms: _202  and  _203
REMARK   71  A    between atoms: _208  and  _210
REMARK   72  A    between atoms: _210  and  _211
REMARK   73  A    between atoms: _210  and  _213
REMARK   74  A    between atoms: _213  and  _214
REMARK   75  A    between atoms: _214  and  _215
REMARK   76  A    between atoms: _218  and  _220
REMARK   77  A    between atoms: _220  and  _221
REMARK   78  A    between atoms: _220  and  _223
REMARK   79  A    between atoms: _223  and  _224
REMARK   80  A    between atoms: _230  and  _232
REMARK   81  A    between atoms: _232  and  _233
REMARK   82  A    between atoms: _232  and  _235
REMARK   83  A    between atoms: _235  and  _236
REMARK   84  A    between atoms: _236  and  _237
REMARK   85  A    between atoms: _239  and  _241
REMARK   86  A    between atoms: _241  and  _242
REMARK   87  A    between atoms: _241  and  _244
REMARK   88  A    between atoms: _244  and  _245
REMARK   89  A    between atoms: _250  and  _251
REMARK   90  A    between atoms: _253  and  _255
REMARK   91  A    between atoms: _255  and  _256
REMARK   92  A    between atoms: _255  and  _258
REMARK   93  A    between atoms: _258  and  _259
REMARK   94  A    between atoms: _262  and  _264
REMARK   95  A    between atoms: _264  and  _265
REMARK   96  A    between atoms: _268  and  _270
REMARK   97  A    between atoms: _270  and  _271
REMARK   98  A    between atoms: _270  and  _273
REMARK   99  A    between atoms: _273  and  _274
REMARK  100  A    between atoms: _274  and  _275
REMARK  101  A    between atoms: _275  and  _276
REMARK  102  A    between atoms: _276  and  _277
REMARK  103  A    between atoms: _281  and  _283
REMARK  104  A    between atoms: _283  and  _284
REMARK  105  A    between atoms: _283  and  _286
REMARK  106  A    between atoms: _286  and  _287
REMARK  107  A    between atoms: _293  and  _295
REMARK  108  A    between atoms: _295  and  _296
REMARK  109  A    between atoms: _295  and  _298
REMARK  110  A    between atoms: _298  and  _299
REMARK  111  A    between atoms: _301  and  _303
REMARK  112  A    between atoms: _303  and  _304
REMARK  113  A    between atoms: _303  and  _306
REMARK  114  A    between atoms: _306  and  _307
REMARK  115  A    between atoms: _312  and  _314
REMARK  116  A    between atoms: _314  and  _315
REMARK  117  A    between atoms: _314  and  _317
REMARK  118  A    between atoms: _317  and  _318
REMARK  119  A    between atoms: _322  and  FE_434
REMARK  120  A    between atoms: _323  and  _325
REMARK  121  A    between atoms: _325  and  _326
REMARK  122  A    between atoms: _329  and  _330
REMARK  123  A    between atoms: _335  and  _337
REMARK  124  A    between atoms: _337  and  _338
REMARK  125  A    between atoms: _337  and  _340
REMARK  126  A    between atoms: _340  and  _341
REMARK  127  A    between atoms: _344  and  _346
REMARK  128  A    between atoms: _346  and  _347
REMARK  129  A    between atoms: _346  and  _349
REMARK  130  A    between atoms: _349  and  _350
REMARK  131  A    between atoms: _356  and  _358
REMARK  132  A    between atoms: _358  and  _359
REMARK  133  A    between atoms: _358  and  _361
REMARK  134  A    between atoms: _361  and  _362
REMARK  135  A    between atoms: _362  and  _363
REMARK  136  A    between atoms: _365  and  _367
REMARK  137  A    between atoms: _367  and  _368
REMARK  138  A    between atoms: _367  and  _370
REMARK  139  A    between atoms: _370  and  _371
REMARK  140  A    between atoms: _371  and  _372
REMARK  141  A    between atoms: _375  and  _377
REMARK  142  A    between atoms: _377  and  _378
REMARK  143  A    between atoms: _377  and  _380
REMARK  144  A    between atoms: _380  and  _381
REMARK  145  A    between atoms: _386  and  _387
REMARK  146  A    between atoms: _389  and  _391
REMARK  147  A    between atoms: _391  and  _392
REMARK  148  A    between atoms: _391  and  _394
REMARK  149  A    between atoms: _394  and  _395
REMARK  150  A    between atoms: _405  and  _407
REMARK  151  A    between atoms: _407  and  _408
REMARK  152  A    between atoms: _407  and  _410
REMARK  153  A    between atoms: _410  and  _411
REMARK  154  A    between atoms: _414  and  _416
REMARK  155  A    between atoms: _416  and  _417
REMARK  156  A    between atoms: _416  and  _419
REMARK  157  A    between atoms: _419  and  _420
REMARK  158  A    between atoms: _422  and  _424
REMARK  159  A    between atoms: _424  and  _425
REMARK  160  A    between atoms: _424  and  _427
REMARK  161  A    between atoms: _427  and  _428
REMARK                            x       y       z     vdW  Elec       q    Type
REMARK                         _______ _______ _______ _____ _____    ______ ____
ROOT
ATOM      1  O   HOH     1      19.194  44.274   3.087  0.00  0.00    +0.000 OA
ENDROOT
TORSDOF 0
REMARK  Name = ../refined-set-2016/4aq6/4aq6_pocket.pdb
REMARK  161 active torsions:
REMARK  status: ('A' for Active; 'I' for Inactive)
REMARK    1  A    between atoms: _1  and  _3
REMARK    2  A    between atoms: _3  and  _4
REMARK    3  A    between atoms: _3  and  _6
REMARK    4  A    between atoms: _6  and  _7
REMARK    5  A    between atoms: _13  and  _14
REMARK    6  A    between atoms: _19  and  _21
REMARK    7  A    between atoms: _21  and  _22
REMARK    8  A    between atoms: _21  and  _24
REMARK    9  A    between atoms: _24  and  _25
REMARK   10  A    between atoms: _29  and  _30
REMARK   11  A    between atoms: _35  and  _37
REMARK   12  A    between atoms: _37  and  _38
REMARK   13  A    between atoms: _37  and  _40
REMARK   14  A    between atoms: _40  and  _41
REMARK   15  A    between atoms: _43  and  _45
REMARK   16  A    between atoms: _45  and  _46
REMARK   17  A    between atoms: _45  and  _48
REMARK   18  A    between atoms: _48  and  _49
REMARK   19  A    between atoms: _52  and  _54
REMARK   20  A    between atoms: _54  and  _55
REMARK   21  A    between atoms: _54  and  _57
REMARK   22  A    between atoms: _57  and  _58
REMARK   23  A    between atoms: _64  and  _66
REMARK   24  A    between atoms: _66  and  _67
REMARK   25  A    between atoms: _66  and  _69
REMARK   26  A    between atoms: _72  and  _74
REMARK   27  A    between atoms: _74  and  _75
REMARK   28  A    between atoms: _74  and  _77
REMARK   29  A    between atoms: _77  and  _78
REMARK   30  A    between atoms: _81  and  _83
REMARK   31  A    between atoms: _83  and  _84
REMARK   32  A    between atoms: _83  and  _86
REMARK   33  A    between atoms: _86  and  _87
REMARK   34  A    between atoms: _93  and  _95
REMARK   35  A    between atoms: _95  and  _96
REMARK   36  A    between atoms: _95  and  _98
REMARK   37  A    between atoms: _98  and  _99
REMARK   38  A    between atoms: _99  and  _100
REMARK   39  A    between atoms: _100  and  _101
REMARK   40  A    between atoms: _110  and  _112
REMARK   41  A    between atoms: _112  and  _113
REMARK   42  A    between atoms: _112  and  _115
REMARK   43  A    between atoms: _115  and  _116
REMARK   44  A    between atoms: _116  and  _117
REMARK   45  A    between atoms: _117  and  _118
REMARK   46  A    between atoms: _128  and  _129
REMARK   47  A    between atoms: _135  and  _136
REMARK   48  A    between atoms: _141  and  _143
REMARK   49  A    between atoms: _143  and  _144
REMARK   50  A    between atoms: _143  and  _146
REMARK   51  A    between atoms: _146  and  _147
REMARK   52  A    between atoms: _157  and  _159
REMARK   53  A    between atoms: _159  and  _160
REMARK   54  A    between atoms: _159  and  _162
REMARK   55  A    between atoms: _162  and  _163
REMARK   56  A    between atoms: _169  and  _171
REMARK   57  A    between atoms: _171  and  _172
REMARK   58  A    between atoms: _171  and  _174
REMARK   59  A    between atoms: _174  and  _175
REMARK   60  A    between atoms: _176  and  FE_434
REMARK   61  A    between atoms: _180  and  _182
REMARK   62  A    between atoms: _182  and  _183
REMARK   63  A    between atoms: _182  and  _185
REMARK   64  A    between atoms: _185  and  _186
REMARK   65  A    between atoms: _186  and  _187
REMARK   66  A    between atoms: _187  and  _188
REMARK   67  A    between atoms: _197  and  _199
REMARK   68  A    between atoms: _199  and  _200
REMARK   69  A    between atoms: _199  and  _202
REMARK   70  A    between atoms: _202  and  _203
REMARK   71  A    between atoms: _208  and  _210
REMARK   72  A    between atoms: _210  and  _211
REMARK   73  A    between atoms: _210  and  _213
REMARK   74  A    between atoms: _213  and  _214
REMARK   75  A    between atoms: _214  and  _215
REMARK   76  A    between atoms: _218  and  _220
REMARK   77  A    between atoms: _220  and  _221
REMARK   78  A    between atoms: _220  and  _223
REMARK   79  A    between atoms: _223  and  _224
REMARK   80  A    between atoms: _230  and  _232
REMARK   81  A    between atoms: _232  and  _233
REMARK   82  A    between atoms: _232  and  _235
REMARK   83  A    between atoms: _235  and  _236
REMARK   84  A    between atoms: _236  and  _237
REMARK   85  A    between atoms: _239  and  _241
REMARK   86  A    between atoms: _241  and  _242
REMARK   87  A    between atoms: _241  and  _244
REMARK   88  A    between atoms: _244  and  _245
REMARK   89  A    between atoms: _250  and  _251
REMARK   90  A    between atoms: _253  and  _255
REMARK   91  A    between atoms: _255  and  _256
REMARK   92  A    between atoms: _255  and  _258
REMARK   93  A    between atoms: _258  and  _259
REMARK   94  A    between atoms: _262  and  _264
REMARK   95  A    between atoms: _264  and  _265
REMARK   96  A    between atoms: _268  and  _270
REMARK   97  A    between atoms: _270  and  _271
REMARK   98  A    between atoms: _270  and  _273
REMARK   99  A    between atoms: _273  and  _274
REMARK  100  A    between atoms: _274  and  _275
REMARK  101  A    between atoms: _275  and  _276
REMARK  102  A    between atoms: _276  and  _277
REMARK  103  A    between atoms: _281  and  _283
REMARK  104  A    between atoms: _283  and  _284
REMARK  105  A    between atoms: _283  and  _286
REMARK  106  A    between atoms: _286  and  _287
REMARK  107  A    between atoms: _293  and  _295
REMARK  108  A    between atoms: _295  and  _296
REMARK  109  A    between atoms: _295  and  _298
REMARK  110  A    between atoms: _298  and  _299
REMARK  111  A    between atoms: _301  and  _303
REMARK  112  A    between atoms: _303  and  _304
REMARK  113  A    between atoms: _303  and  _306
REMARK  114  A    between atoms: _306  and  _307
REMARK  115  A    between atoms: _312  and  _314
REMARK  116  A    between atoms: _314  and  _315
REMARK  117  A    between atoms: _314  and  _317
REMARK  118  A    between atoms: _317  and  _318
REMARK  119  A    between atoms: _322  and  FE_434
REMARK  120  A    between atoms: _323  and  _325
REMARK  121  A    between atoms: _325  and  _326
REMARK  122  A    between atoms: _329  and  _330
REMARK  123  A    between atoms: _335  and  _337
REMARK  124  A    between atoms: _337  and  _338
REMARK  125  A    between atoms: _337  and  _340
REMARK  126  A    between atoms: _340  and  _341
REMARK  127  A    between atoms: _344  and  _346
REMARK  128  A    between atoms: _346  and  _347
REMARK  129  A    between atoms: _346  and  _349
REMARK  130  A    between atoms: _349  and  _350
REMARK  131  A    between atoms: _356  and  _358
REMARK  132  A    between atoms: _358  and  _359
REMARK  133  A    between atoms: _358  and  _361
REMARK  134  A    between atoms: _361  and  _362
REMARK  135  A    between atoms: _362  and  _363
REMARK  136  A    between atoms: _365  and  _367
REMARK  137  A    between atoms: _367  and  _368
REMARK  138  A    between atoms: _367  and  _370
REMARK  139  A    between atoms: _370  and  _371
REMARK  140  A    between atoms: _371  and  _372
REMARK  141  A    between atoms: _375  and  _377
REMARK  142  A    between atoms: _377  and  _378
REMARK  143  A    between atoms: _377  and  _380
REMARK  144  A    between atoms: _380  and  _381
REMARK  145  A    between atoms: _386  and  _387
REMARK  146  A    between atoms: _389  and  _391
REMARK  147  A    between atoms: _391  and  _392
REMARK  148  A    between atoms: _391  and  _394
REMARK  149  A    between atoms: _394  and  _395
REMARK  150  A    between atoms: _405  and  _407
REMARK  151  A    between atoms: _407  and  _408
REMARK  152  A    between atoms: _407  and  _410
REMARK  153  A    between atoms: _410  and  _411
REMARK  154  A    between atoms: _414  and  _416
REMARK  155  A    between atoms: _416  and  _417
REMARK  156  A    between atoms: _416  and  _419
REMARK  157  A    between atoms: _419  and  _420
REMARK  158  A    between atoms: _422  and  _424
REMARK  159  A    between atoms: _424  and  _425
REMARK  160  A    between atoms: _424  and  _427
REMARK  161  A    between atoms: _427  and  _428
REMARK                            x       y       z     vdW  Elec       q    Type
REMARK                         _______ _______ _______ _____ _____    ______ ____
ROOT
ATOM      1  O   HOH     1      16.250  40.012   5.458  0.00  0.00    +0.000 OA
ENDROOT
TORSDOF 0
REMARK  Name = ../refined-set-2016/4aq6/4aq6_pocket.pdb
REMARK  161 active torsions:
REMARK  status: ('A' for Active; 'I' for Inactive)
REMARK    1  A    between atoms: _1  and  _3
REMARK    2  A    between atoms: _3  and  _4
REMARK    3  A    between atoms: _3  and  _6
REMARK    4  A    between atoms: _6  and  _7
REMARK    5  A    between atoms: _13  and  _14
REMARK    6  A    between atoms: _19  and  _21
REMARK    7  A    between atoms: _21  and  _22
REMARK    8  A    between atoms: _21  and  _24
REMARK    9  A    between atoms: _24  and  _25
REMARK   10  A    between atoms: _29  and  _30
REMARK   11  A    between atoms: _35  and  _37
REMARK   12  A    between atoms: _37  and  _38
REMARK   13  A    between atoms: _37  and  _40
REMARK   14  A    between atoms: _40  and  _41
REMARK   15  A    between atoms: _43  and  _45
REMARK   16  A    between atoms: _45  and  _46
REMARK   17  A    between atoms: _45  and  _48
REMARK   18  A    between atoms: _48  and  _49
REMARK   19  A    between atoms: _52  and  _54
REMARK   20  A    between atoms: _54  and  _55
REMARK   21  A    between atoms: _54  and  _57
REMARK   22  A    between atoms: _57  and  _58
REMARK   23  A    between atoms: _64  and  _66
REMARK   24  A    between atoms: _66  and  _67
REMARK   25  A    between atoms: _66  and  _69
REMARK   26  A    between atoms: _72  and  _74
REMARK   27  A    between atoms: _74  and  _75
REMARK   28  A    between atoms: _74  and  _77
REMARK   29  A    between atoms: _77  and  _78
REMARK   30  A    between atoms: _81  and  _83
REMARK   31  A    between atoms: _83  and  _84
REMARK   32  A    between atoms: _83  and  _86
REMARK   33  A    between atoms: _86  and  _87
REMARK   34  A    between atoms: _93  and  _95
REMARK   35  A    between atoms: _95  and  _96
REMARK   36  A    between atoms: _95  and  _98
REMARK   37  A    between atoms: _98  and  _99
REMARK   38  A    between atoms: _99  and  _100
REMARK   39  A    between atoms: _100  and  _101
REMARK   40  A    between atoms: _110  and  _112
REMARK   41  A    between atoms: _112  and  _113
REMARK   42  A    between atoms: _112  and  _115
REMARK   43  A    between atoms: _115  and  _116
REMARK   44  A    between atoms: _116  and  _117
REMARK   45  A    between atoms: _117  and  _118
REMARK   46  A    between atoms: _128  and  _129
REMARK   47  A    between atoms: _135  and  _136
REMARK   48  A    between atoms: _141  and  _143
REMARK   49  A    between atoms: _143  and  _144
REMARK   50  A    between atoms: _143  and  _146
REMARK   51  A    between atoms: _146  and  _147
REMARK   52  A    between atoms: _157  and  _159
REMARK   53  A    between atoms: _159  and  _160
REMARK   54  A    between atoms: _159  and  _162
REMARK   55  A    between atoms: _162  and  _163
REMARK   56  A    between atoms: _169  and  _171
REMARK   57  A    between atoms: _171  and  _172
REMARK   58  A    between atoms: _171  and  _174
REMARK   59  A    between atoms: _174  and  _175
REMARK   60  A    between atoms: _176  and  FE_434
REMARK   61  A    between atoms: _180  and  _182
REMARK   62  A    between atoms: _182  and  _183
REMARK   63  A    between atoms: _182  and  _185
REMARK   64  A    between atoms: _185  and  _186
REMARK   65  A    between atoms: _186  and  _187
REMARK   66  A    between atoms: _187  and  _188
REMARK   67  A    between atoms: _197  and  _199
REMARK   68  A    between atoms: _199  and  _200
REMARK   69  A    between atoms: _199  and  _202
REMARK   70  A    between atoms: _202  and  _203
REMARK   71  A    between atoms: _208  and  _210
REMARK   72  A    between atoms: _210  and  _211
REMARK   73  A    between atoms: _210  and  _213
REMARK   74  A    between atoms: _213  and  _214
REMARK   75  A    between atoms: _214  and  _215
REMARK   76  A    between atoms: _218  and  _220
REMARK   77  A    between atoms: _220  and  _221
REMARK   78  A    between atoms: _220  and  _223
REMARK   79  A    between atoms: _223  and  _224
REMARK   80  A    between atoms: _230  and  _232
REMARK   81  A    between atoms: _232  and  _233
REMARK   82  A    between atoms: _232  and  _235
REMARK   83  A    between atoms: _235  and  _236
REMARK   84  A    between atoms: _236  and  _237
REMARK   85  A    between atoms: _239  and  _241
REMARK   86  A    between atoms: _241  and  _242
REMARK   87  A    between atoms: _241  and  _244
REMARK   88  A    between atoms: _244  and  _245
REMARK   89  A    between atoms: _250  and  _251
REMARK   90  A    between atoms: _253  and  _255
REMARK   91  A    between atoms: _255  and  _256
REMARK   92  A    between atoms: _255  and  _258
REMARK   93  A    between atoms: _258  and  _259
REMARK   94  A    between atoms: _262  and  _264
REMARK   95  A    between atoms: _264  and  _265
REMARK   96  A    between atoms: _268  and  _270
REMARK   97  A    between atoms: _270  and  _271
REMARK   98  A    between atoms: _270  and  _273
REMARK   99  A    between atoms: _273  and  _274
REMARK  100  A    between atoms: _274  and  _275
REMARK  101  A    between atoms: _275  and  _276
REMARK  102  A    between atoms: _276  and  _277
REMARK  103  A    between atoms: _281  and  _283
REMARK  104  A    between atoms: _283  and  _284
REMARK  105  A    between atoms: _283  and  _286
REMARK  106  A    between atoms: _286  and  _287
REMARK  107  A    between atoms: _293  and  _295
REMARK  108  A    between atoms: _295  and  _296
REMARK  109  A    between atoms: _295  and  _298
REMARK  110  A    between atoms: _298  and  _299
REMARK  111  A    between atoms: _301  and  _303
REMARK  112  A    between atoms: _303  and  _304
REMARK  113  A    between atoms: _303  and  _306
REMARK  114  A    between atoms: _306  and  _307
REMARK  115  A    between atoms: _312  and  _314
REMARK  116  A    between atoms: _314  and  _315
REMARK  117  A    between atoms: _314  and  _317
REMARK  118  A    between atoms: _317  and  _318
REMARK  119  A    between atoms: _322  and  FE_434
REMARK  120  A    between atoms: _323  and  _325
REMARK  121  A    between atoms: _325  and  _326
REMARK  122  A    between atoms: _329  and  _330
REMARK  123  A    between atoms: _335  and  _337
REMARK  124  A    between atoms: _337  and  _338
REMARK  125  A    between atoms: _337  and  _340
REMARK  126  A    between atoms: _340  and  _341
REMARK  127  A    between atoms: _344  and  _346
REMARK  128  A    between atoms: _346  and  _347
REMARK  129  A    between atoms: _346  and  _349
REMARK  130  A    between atoms: _349  and  _350
REMARK  131  A    between atoms: _356  and  _358
REMARK  132  A    between atoms: _358  and  _359
REMARK  133  A    between atoms: _358  and  _361
REMARK  134  A    between atoms: _361  and  _362
REMARK  135  A    between atoms: _362  and  _363
REMARK  136  A    between atoms: _365  and  _367
REMARK  137  A    between atoms: _367  and  _368
REMARK  138  A    between atoms: _367  and  _370
REMARK  139  A    between atoms: _370  and  _371
REMARK  140  A    between atoms: _371  and  _372
REMARK  141  A    between atoms: _375  and  _377
REMARK  142  A    between atoms: _377  and  _378
REMARK  143  A    between atoms: _377  and  _380
REMARK  144  A    between atoms: _380  and  _381
REMARK  145  A    between atoms: _386  and  _387
REMARK  146  A    between atoms: _389  and  _391
REMARK  147  A    between atoms: _391  and  _392
REMARK  148  A    between atoms: _391  and  _394
REMARK  149  A    between atoms: _394  and  _395
REMARK  150  A    between atoms: _405  and  _407
REMARK  151  A    between atoms: _407  and  _408
REMARK  152  A    between atoms: _407  and  _410
REMARK  153  A    between atoms: _410  and  _411
REMARK  154  A    between atoms: _414  and  _416
REMARK  155  A    between atoms: _416  and  _417
REMARK  156  A    between atoms: _416  and  _419
REMARK  157  A    between atoms: _419  and  _420
REMARK  158  A    between atoms: _422  and  _424
REMARK  159  A    between atoms: _424  and  _425
REMARK  160  A    between atoms: _424  and  _427
REMARK  161  A    between atoms: _427  and  _428
REMARK                            x       y       z     vdW  Elec       q    Type
REMARK                         _______ _______ _______ _____ _____    ______ ____
ROOT
ATOM      1  O   HOH     1      20.615  43.193   0.947  0.00  0.00    +0.000 OA
ENDROOT
TORSDOF 0
REMARK  Name = ../refined-set-2016/4aq6/4aq6_pocket.pdb
REMARK  161 active torsions:
REMARK  status: ('A' for Active; 'I' for Inactive)
REMARK    1  A    between atoms: _1  and  _3
REMARK    2  A    between atoms: _3  and  _4
REMARK    3  A    between atoms: _3  and  _6
REMARK    4  A    between atoms: _6  and  _7
REMARK    5  A    between atoms: _13  and  _14
REMARK    6  A    between atoms: _19  and  _21
REMARK    7  A    between atoms: _21  and  _22
REMARK    8  A    between atoms: _21  and  _24
REMARK    9  A    between atoms: _24  and  _25
REMARK   10  A    between atoms: _29  and  _30
REMARK   11  A    between atoms: _35  and  _37
REMARK   12  A    between atoms: _37  and  _38
REMARK   13  A    between atoms: _37  and  _40
REMARK   14  A    between atoms: _40  and  _41
REMARK   15  A    between atoms: _43  and  _45
REMARK   16  A    between atoms: _45  and  _46
REMARK   17  A    between atoms: _45  and  _48
REMARK   18  A    between atoms: _48  and  _49
REMARK   19  A    between atoms: _52  and  _54
REMARK   20  A    between atoms: _54  and  _55
REMARK   21  A    between atoms: _54  and  _57
REMARK   22  A    between atoms: _57  and  _58
REMARK   23  A    between atoms: _64  and  _66
REMARK   24  A    between atoms: _66  and  _67
REMARK   25  A    between atoms: _66  and  _69
REMARK   26  A    between atoms: _72  and  _74
REMARK   27  A    between atoms: _74  and  _75
REMARK   28  A    between atoms: _74  and  _77
REMARK   29  A    between atoms: _77  and  _78
REMARK   30  A    between atoms: _81  and  _83
REMARK   31  A    between atoms: _83  and  _84
REMARK   32  A    between atoms: _83  and  _86
REMARK   33  A    between atoms: _86  and  _87
REMARK   34  A    between atoms: _93  and  _95
REMARK   35  A    between atoms: _95  and  _96
REMARK   36  A    between atoms: _95  and  _98
REMARK   37  A    between atoms: _98  and  _99
REMARK   38  A    between atoms: _99  and  _100
REMARK   39  A    between atoms: _100  and  _101
REMARK   40  A    between atoms: _110  and  _112
REMARK   41  A    between atoms: _112  and  _113
REMARK   42  A    between atoms: _112  and  _115
REMARK   43  A    between atoms: _115  and  _116
REMARK   44  A    between atoms: _116  and  _117
REMARK   45  A    between atoms: _117  and  _118
REMARK   46  A    between atoms: _128  and  _129
REMARK   47  A    between atoms: _135  and  _136
REMARK   48  A    between atoms: _141  and  _143
REMARK   49  A    between atoms: _143  and  _144
REMARK   50  A    between atoms: _143  and  _146
REMARK   51  A    between atoms: _146  and  _147
REMARK   52  A    between atoms: _157  and  _159
REMARK   53  A    between atoms: _159  and  _160
REMARK   54  A    between atoms: _159  and  _162
REMARK   55  A    between atoms: _162  and  _163
REMARK   56  A    between atoms: _169  and  _171
REMARK   57  A    between atoms: _171  and  _172
REMARK   58  A    between atoms: _171  and  _174
REMARK   59  A    between atoms: _174  and  _175
REMARK   60  A    between atoms: _176  and  FE_434
REMARK   61  A    between atoms: _180  and  _182
REMARK   62  A    between atoms: _182  and  _183
REMARK   63  A    between atoms: _182  and  _185
REMARK   64  A    between atoms: _185  and  _186
REMARK   65  A    between atoms: _186  and  _187
REMARK   66  A    between atoms: _187  and  _188
REMARK   67  A    between atoms: _197  and  _199
REMARK   68  A    between atoms: _199  and  _200
REMARK   69  A    between atoms: _199  and  _202
REMARK   70  A    between atoms: _202  and  _203
REMARK   71  A    between atoms: _208  and  _210
REMARK   72  A    between atoms: _210  and  _211
REMARK   73  A    between atoms: _210  and  _213
REMARK   74  A    between atoms: _213  and  _214
REMARK   75  A    between atoms: _214  and  _215
REMARK   76  A    between atoms: _218  and  _220
REMARK   77  A    between atoms: _220  and  _221
REMARK   78  A    between atoms: _220  and  _223
REMARK   79  A    between atoms: _223  and  _224
REMARK   80  A    between atoms: _230  and  _232
REMARK   81  A    between atoms: _232  and  _233
REMARK   82  A    between atoms: _232  and  _235
REMARK   83  A    between atoms: _235  and  _236
REMARK   84  A    between atoms: _236  and  _237
REMARK   85  A    between atoms: _239  and  _241
REMARK   86  A    between atoms: _241  and  _242
REMARK   87  A    between atoms: _241  and  _244
REMARK   88  A    between atoms: _244  and  _245
REMARK   89  A    between atoms: _250  and  _251
REMARK   90  A    between atoms: _253  and  _255
REMARK   91  A    between atoms: _255  and  _256
REMARK   92  A    between atoms: _255  and  _258
REMARK   93  A    between atoms: _258  and  _259
REMARK   94  A    between atoms: _262  and  _264
REMARK   95  A    between atoms: _264  and  _265
REMARK   96  A    between atoms: _268  and  _270
REMARK   97  A    between atoms: _270  and  _271
REMARK   98  A    between atoms: _270  and  _273
REMARK   99  A    between atoms: _273  and  _274
REMARK  100  A    between atoms: _274  and  _275
REMARK  101  A    between atoms: _275  and  _276
REMARK  102  A    between atoms: _276  and  _277
REMARK  103  A    between atoms: _281  and  _283
REMARK  104  A    between atoms: _283  and  _284
REMARK  105  A    between atoms: _283  and  _286
REMARK  106  A    between atoms: _286  and  _287
REMARK  107  A    between atoms: _293  and  _295
REMARK  108  A    between atoms: _295  and  _296
REMARK  109  A    between atoms: _295  and  _298
REMARK  110  A    between atoms: _298  and  _299
REMARK  111  A    between atoms: _301  and  _303
REMARK  112  A    between atoms: _303  and  _304
REMARK  113  A    between atoms: _303  and  _306
REMARK  114  A    between atoms: _306  and  _307
REMARK  115  A    between atoms: _312  and  _314
REMARK  116  A    between atoms: _314  and  _315
REMARK  117  A    between atoms: _314  and  _317
REMARK  118  A    between atoms: _317  and  _318
REMARK  119  A    between atoms: _322  and  FE_434
REMARK  120  A    between atoms: _323  and  _325
REMARK  121  A    between atoms: _325  and  _326
REMARK  122  A    between atoms: _329  and  _330
REMARK  123  A    between atoms: _335  and  _337
REMARK  124  A    between atoms: _337  and  _338
REMARK  125  A    between atoms: _337  and  _340
REMARK  126  A    between atoms: _340  and  _341
REMARK  127  A    between atoms: _344  and  _346
REMARK  128  A    between atoms: _346  and  _347
REMARK  129  A    between atoms: _346  and  _349
REMARK  130  A    between atoms: _349  and  _350
REMARK  131  A    between atoms: _356  and  _358
REMARK  132  A    between atoms: _358  and  _359
REMARK  133  A    between atoms: _358  and  _361
REMARK  134  A    between atoms: _361  and  _362
REMARK  135  A    between atoms: _362  and  _363
REMARK  136  A    between atoms: _365  and  _367
REMARK  137  A    between atoms: _367  and  _368
REMARK  138  A    between atoms: _367  and  _370
REMARK  139  A    between atoms: _370  and  _371
REMARK  140  A    between atoms: _371  and  _372
REMARK  141  A    between atoms: _375  and  _377
REMARK  142  A    between atoms: _377  and  _378
REMARK  143  A    between atoms: _377  and  _380
REMARK  144  A    between atoms: _380  and  _381
REMARK  145  A    between atoms: _386  and  _387
REMARK  146  A    between atoms: _389  and  _391
REMARK  147  A    between atoms: _391  and  _392
REMARK  148  A    between atoms: _391  and  _394
REMARK  149  A    between atoms: _394  and  _395
REMARK  150  A    between atoms: _405  and  _407
REMARK  151  A    between atoms: _407  and  _408
REMARK  152  A    between atoms: _407  and  _410
REMARK  153  A    between atoms: _410  and  _411
REMARK  154  A    between atoms: _414  and  _416
REMARK  155  A    between atoms: _416  and  _417
REMARK  156  A    between atoms: _416  and  _419
REMARK  157  A    between atoms: _419  and  _420
REMARK  158  A    between atoms: _422  and  _424
REMARK  159  A    between atoms: _424  and  _425
REMARK  160  A    between atoms: _424  and  _427
REMARK  161  A    between atoms: _427  and  _428
REMARK                            x       y       z     vdW  Elec       q    Type
REMARK                         _______ _______ _______ _____ _____    ______ ____
ROOT
ATOM      1  O   HOH     1      11.975  42.422  -5.011  0.00  0.00    +0.000 OA
ENDROOT
TORSDOF 0
