REMARK  Name = ../refined-set-2016/3l7b/3l7b_pocket.pdb
REMARK  238 active torsions:
REMARK  status: ('A' for Active; 'I' for Inactive)
REMARK    1  A    between atoms: _1  and  _3
REMARK    2  A    between atoms: _3  and  _4
REMARK    3  A    between atoms: _3  and  _6
REMARK    4  A    between atoms: _6  and  _7
REMARK    5  A    between atoms: _12  and  _13
REMARK    6  A    between atoms: _15  and  _17
REMARK    7  A    between atoms: _17  and  _18
REMARK    8  A    between atoms: _17  and  _20
REMARK    9  A    between atoms: _20  and  _21
REMARK   10  A    between atoms: _21  and  _22
REMARK   11  A    between atoms: _25  and  _27
REMARK   12  A    between atoms: _27  and  _28
REMARK   13  A    between atoms: _27  and  _30
REMARK   14  A    between atoms: _30  and  _31
REMARK   15  A    between atoms: _36  and  _37
REMARK   16  A    between atoms: _39  and  _41
REMARK   17  A    between atoms: _41  and  _42
REMARK   18  A    between atoms: _41  and  _44
REMARK   19  A    between atoms: _44  and  _45
REMARK   20  A    between atoms: _50  and  _52
REMARK   21  A    between atoms: _52  and  _53
REMARK   22  A    between atoms: _55  and  _57
REMARK   23  A    between atoms: _57  and  _58
REMARK   24  A    between atoms: _60  and  _62
REMARK   25  A    between atoms: _62  and  _63
REMARK   26  A    between atoms: _62  and  _65
REMARK   27  A    between atoms: _65  and  _66
REMARK   28  A    between atoms: _69  and  _71
REMARK   29  A    between atoms: _71  and  _72
REMARK   30  A    between atoms: _74  and  _76
REMARK   31  A    between atoms: _76  and  _77
REMARK   32  A    between atoms: _76  and  _79
REMARK   33  A    between atoms: _80  and  _81
REMARK   34  A    between atoms: _81  and  _82
REMARK   35  A    between atoms: _91  and  _93
REMARK   36  A    between atoms: _93  and  _94
REMARK   37  A    between atoms: _93  and  _96
REMARK   38  A    between atoms: _96  and  _97
REMARK   39  A    between atoms: _100  and  _102
REMARK   40  A    between atoms: _102  and  _103
REMARK   41  A    between atoms: _106  and  _108
REMARK   42  A    between atoms: _108  and  _109
REMARK   43  A    between atoms: _108  and  _111
REMARK   44  A    between atoms: _111  and  _112
REMARK   45  A    between atoms: _118  and  _120
REMARK   46  A    between atoms: _120  and  _121
REMARK   47  A    between atoms: _120  and  _123
REMARK   48  A    between atoms: _123  and  _124
REMARK   49  A    between atoms: _129  and  _131
REMARK   50  A    between atoms: _131  and  _132
REMARK   51  A    between atoms: _131  and  _134
REMARK   52  A    between atoms: _134  and  _135
REMARK   53  A    between atoms: _138  and  _140
REMARK   54  A    between atoms: _140  and  _141
REMARK   55  A    between atoms: _140  and  _143
REMARK   56  A    between atoms: _143  and  _144
REMARK   57  A    between atoms: _149  and  _151
REMARK   58  A    between atoms: _151  and  _152
REMARK   59  A    between atoms: _151  and  _154
REMARK   60  A    between atoms: _154  and  _155
REMARK   61  A    between atoms: _161  and  _163
REMARK   62  A    between atoms: _163  and  _164
REMARK   63  A    between atoms: _163  and  _166
REMARK   64  A    between atoms: _166  and  _167
REMARK   65  A    between atoms: _173  and  _175
REMARK   66  A    between atoms: _175  and  _176
REMARK   67  A    between atoms: _175  and  _178
REMARK   68  A    between atoms: _178  and  _179
REMARK   69  A    between atoms: _179  and  _180
REMARK   70  A    between atoms: _180  and  _181
REMARK   71  A    between atoms: _190  and  _192
REMARK   72  A    between atoms: _192  and  _193
REMARK   73  A    between atoms: _192  and  _195
REMARK   74  A    between atoms: _195  and  _196
REMARK   75  A    between atoms: _201  and  _203
REMARK   76  A    between atoms: _203  and  _204
REMARK   77  A    between atoms: _203  and  _206
REMARK   78  A    between atoms: _206  and  _207
REMARK   79  A    between atoms: _210  and  _212
REMARK   80  A    between atoms: _212  and  _213
REMARK   81  A    between atoms: _212  and  _215
REMARK   82  A    between atoms: _215  and  _216
REMARK   83  A    between atoms: _219  and  _221
REMARK   84  A    between atoms: _221  and  _222
REMARK   85  A    between atoms: _221  and  _224
REMARK   86  A    between atoms: _224  and  _225
REMARK   87  A    between atoms: _230  and  _232
REMARK   88  A    between atoms: _232  and  _233
REMARK   89  A    between atoms: _232  and  _235
REMARK   90  A    between atoms: _235  and  _236
REMARK   91  A    between atoms: _239  and  _241
REMARK   92  A    between atoms: _241  and  _242
REMARK   93  A    between atoms: _241  and  _244
REMARK   94  A    between atoms: _244  and  _245
REMARK   95  A    between atoms: _250  and  _252
REMARK   96  A    between atoms: _252  and  _253
REMARK   97  A    between atoms: _252  and  _255
REMARK   98  A    between atoms: _255  and  _256
REMARK   99  A    between atoms: _261  and  _263
REMARK  100  A    between atoms: _263  and  _264
REMARK  101  A    between atoms: _263  and  _266
REMARK  102  A    between atoms: _266  and  _267
REMARK  103  A    between atoms: _270  and  _272
REMARK  104  A    between atoms: _272  and  _273
REMARK  105  A    between atoms: _272  and  _275
REMARK  106  A    between atoms: _278  and  _280
REMARK  107  A    between atoms: _280  and  _281
REMARK  108  A    between atoms: _280  and  _283
REMARK  109  A    between atoms: _283  and  _284
REMARK  110  A    between atoms: _287  and  _289
REMARK  111  A    between atoms: _289  and  _290
REMARK  112  A    between atoms: _293  and  _295
REMARK  113  A    between atoms: _295  and  _296
REMARK  114  A    between atoms: _295  and  _298
REMARK  115  A    between atoms: _298  and  _299
REMARK  116  A    between atoms: _302  and  _304
REMARK  117  A    between atoms: _304  and  _305
REMARK  118  A    between atoms: _304  and  _307
REMARK  119  A    between atoms: _307  and  _308
REMARK  120  A    between atoms: _308  and  _309
REMARK  121  A    between atoms: _312  and  _314
REMARK  122  A    between atoms: _314  and  _315
REMARK  123  A    between atoms: _314  and  _317
REMARK  124  A    between atoms: _317  and  _318
REMARK  125  A    between atoms: _323  and  _325
REMARK  126  A    between atoms: _325  and  _326
REMARK  127  A    between atoms: _328  and  _330
REMARK  128  A    between atoms: _330  and  _331
REMARK  129  A    between atoms: _330  and  _333
REMARK  130  A    between atoms: _336  and  _338
REMARK  131  A    between atoms: _338  and  _339
REMARK  132  A    between atoms: _342  and  _344
REMARK  133  A    between atoms: _344  and  _345
REMARK  134  A    between atoms: _344  and  _347
REMARK  135  A    between atoms: _347  and  _348
REMARK  136  A    between atoms: _353  and  _355
REMARK  137  A    between atoms: _355  and  _356
REMARK  138  A    between atoms: _355  and  _358
REMARK  139  A    between atoms: _358  and  _359
REMARK  140  A    between atoms: _359  and  _360
REMARK  141  A    between atoms: _360  and  _361
REMARK  142  A    between atoms: _361  and  _362
REMARK  143  A    between atoms: _366  and  _368
REMARK  144  A    between atoms: _368  and  _369
REMARK  145  A    between atoms: _368  and  _371
REMARK  146  A    between atoms: _371  and  _372
REMARK  147  A    between atoms: _377  and  _379
REMARK  148  A    between atoms: _379  and  _380
REMARK  149  A    between atoms: _382  and  _384
REMARK  150  A    between atoms: _384  and  _385
REMARK  151  A    between atoms: _384  and  _387
REMARK  152  A    between atoms: _387  and  _388
REMARK  153  A    between atoms: _391  and  _393
REMARK  154  A    between atoms: _393  and  _394
REMARK  155  A    between atoms: _393  and  _396
REMARK  156  A    between atoms: _396  and  _397
REMARK  157  A    between atoms: _397  and  _398
REMARK  158  A    between atoms: _398  and  _399
REMARK  159  A    between atoms: _399  and  _400
REMARK  160  A    between atoms: _404  and  _406
REMARK  161  A    between atoms: _406  and  _407
REMARK  162  A    between atoms: _406  and  _409
REMARK  163  A    between atoms: _409  and  _410
REMARK  164  A    between atoms: _410  and  _411
REMARK  165  A    between atoms: _411  and  _412
REMARK  166  A    between atoms: _421  and  _423
REMARK  167  A    between atoms: _423  and  _424
REMARK  168  A    between atoms: _423  and  _426
REMARK  169  A    between atoms: _426  and  _427
REMARK  170  A    between atoms: _432  and  _433
REMARK  171  A    between atoms: _435  and  _437
REMARK  172  A    between atoms: _437  and  _438
REMARK  173  A    between atoms: _437  and  _440
REMARK  174  A    between atoms: _440  and  _441
REMARK  175  A    between atoms: _441  and  _442
REMARK  176  A    between atoms: _442  and  _443
REMARK  177  A    between atoms: _443  and  _444
REMARK  178  A    between atoms: _448  and  _450
REMARK  179  A    between atoms: _450  and  _451
REMARK  180  A    between atoms: _450  and  _453
REMARK  181  A    between atoms: _453  and  _454
REMARK  182  A    between atoms: _456  and  _458
REMARK  183  A    between atoms: _458  and  _459
REMARK  184  A    between atoms: _458  and  _461
REMARK  185  A    between atoms: _461  and  _462
REMARK  186  A    between atoms: _465  and  _467
REMARK  187  A    between atoms: _467  and  _468
REMARK  188  A    between atoms: _467  and  _470
REMARK  189  A    between atoms: _470  and  _471
REMARK  190  A    between atoms: _471  and  _472
REMARK  191  A    between atoms: _475  and  _477
REMARK  192  A    between atoms: _477  and  _478
REMARK  193  A    between atoms: _481  and  _483
REMARK  194  A    between atoms: _483  and  _484
REMARK  195  A    between atoms: _483  and  _486
REMARK  196  A    between atoms: _486  and  _487
REMARK  197  A    between atoms: _489  and  _491
REMARK  198  A    between atoms: _491  and  _492
REMARK  199  A    between atoms: _494  and  _496
REMARK  200  A    between atoms: _496  and  _497
REMARK  201  A    between atoms: _496  and  _499
REMARK  202  A    between atoms: _499  and  _500
REMARK  203  A    between atoms: _503  and  _505
REMARK  204  A    between atoms: _505  and  _506
REMARK  205  A    between atoms: _508  and  _510
REMARK  206  A    between atoms: _510  and  _511
REMARK  207  A    between atoms: _510  and  _513
REMARK  208  A    between atoms: _513  and  _514
REMARK  209  A    between atoms: _519  and  _521
REMARK  210  A    between atoms: _521  and  _522
REMARK  211  A    between atoms: _521  and  _524
REMARK  212  A    between atoms: _524  and  _525
REMARK  213  A    between atoms: _525  and  _526
REMARK  214  A    between atoms: _533  and  _534
REMARK  215  A    between atoms: _534  and  _550
REMARK  216  A    between atoms: _535  and  _537
REMARK  217  A    between atoms: _537  and  _538
REMARK  218  A    between atoms: _538  and  _539
REMARK  219  A    between atoms: _543  and  _545
REMARK  220  A    between atoms: _545  and  _546
REMARK  221  A    between atoms: _545  and  _553
REMARK  222  A    between atoms: _546  and  _547
REMARK  223  A    between atoms: _547  and  _548
REMARK  224  A    between atoms: _548  and  _549
REMARK  225  A    between atoms: _549  and  _550
REMARK  226  A    between atoms: _555  and  _557
REMARK  227  A    between atoms: _557  and  _558
REMARK  228  A    between atoms: _557  and  _560
REMARK  229  A    between atoms: _560  and  _561
REMARK  230  A    between atoms: _564  and  _566
REMARK  231  A    between atoms: _566  and  _567
REMARK  232  A    between atoms: _569  and  _571
REMARK  233  A    between atoms: _571  and  _572
REMARK  234  A    between atoms: _575  and  _577
REMARK  235  A    between atoms: _577  and  _578
REMARK  236  A    between atoms: _577  and  _580
REMARK  237  A    between atoms: _580  and  _581
REMARK  238  A    between atoms: _586  and  _587
REMARK                            x       y       z     vdW  Elec       q    Type
REMARK                         _______ _______ _______ _____ _____    ______ ____
ROOT
ATOM      1  CG  TYR A   1      33.589  11.372  36.674  0.00  0.00    -0.020 A 
ATOM      2  CD2 TYR A   1      33.158  12.692  36.795  0.00  0.00    -0.001 A 
ATOM      3  CE2 TYR A   1      33.182  13.561  35.710  0.00  0.00    +0.036 A 
ATOM      4  CZ  TYR A   1      33.634  13.115  34.493  0.00  0.00    +0.134 A 
ATOM      5  CE1 TYR A   1      34.062  11.807  34.336  0.00  0.00    +0.036 A 
ATOM      6  CD1 TYR A   1      34.035  10.938  35.428  0.00  0.00    -0.001 A 
ENDROOT
BRANCH   4   7
ATOM      7  OH  TYR A   1      33.662  13.966  33.409  0.00  0.00    -0.506 OA
ATOM      8  HH  TYR A   1      34.013  13.482  32.620  0.00  0.00    +0.292 HD
ENDBRANCH   4   7
BRANCH   1   9
ATOM      9  CB  TYR A   1      33.578  10.438  37.853  0.00  0.00    +0.051 C 
BRANCH   9  10
ATOM     10  CA  TYR A   1      34.906  10.396  38.620  0.00  0.00    +0.137 C 
BRANCH  10  11
ATOM     11  N   TYR A   1      34.925   9.244  39.511  0.00  0.00    -0.239 NA
ATOM     12  H   TYR A   1      34.077   9.013  40.066  0.00  0.00    +0.142 HD
ENDBRANCH  10  11
BRANCH  10  13
ATOM     13  C   TYR A   1      35.113  11.674  39.438  0.00  0.00    +0.224 C 
ATOM     14  O   TYR A   1      34.204  12.105  40.156  0.00  0.00    -0.287 OA
ENDBRANCH  10  13
ENDBRANCH   9  10
ENDBRANCH   1   9
TORSDOF 5
REMARK  Name = ../refined-set-2016/3l7b/3l7b_pocket.pdb
REMARK  238 active torsions:
REMARK  status: ('A' for Active; 'I' for Inactive)
REMARK    1  A    between atoms: _1  and  _3
REMARK    2  A    between atoms: _3  and  _4
REMARK    3  A    between atoms: _3  and  _6
REMARK    4  A    between atoms: _6  and  _7
REMARK    5  A    between atoms: _12  and  _13
REMARK    6  A    between atoms: _15  and  _17
REMARK    7  A    between atoms: _17  and  _18
REMARK    8  A    between atoms: _17  and  _20
REMARK    9  A    between atoms: _20  and  _21
REMARK   10  A    between atoms: _21  and  _22
REMARK   11  A    between atoms: _25  and  _27
REMARK   12  A    between atoms: _27  and  _28
REMARK   13  A    between atoms: _27  and  _30
REMARK   14  A    between atoms: _30  and  _31
REMARK   15  A    between atoms: _36  and  _37
REMARK   16  A    between atoms: _39  and  _41
REMARK   17  A    between atoms: _41  and  _42
REMARK   18  A    between atoms: _41  and  _44
REMARK   19  A    between atoms: _44  and  _45
REMARK   20  A    between atoms: _50  and  _52
REMARK   21  A    between atoms: _52  and  _53
REMARK   22  A    between atoms: _55  and  _57
REMARK   23  A    between atoms: _57  and  _58
REMARK   24  A    between atoms: _60  and  _62
REMARK   25  A    between atoms: _62  and  _63
REMARK   26  A    between atoms: _62  and  _65
REMARK   27  A    between atoms: _65  and  _66
REMARK   28  A    between atoms: _69  and  _71
REMARK   29  A    between atoms: _71  and  _72
REMARK   30  A    between atoms: _74  and  _76
REMARK   31  A    between atoms: _76  and  _77
REMARK   32  A    between atoms: _76  and  _79
REMARK   33  A    between atoms: _80  and  _81
REMARK   34  A    between atoms: _81  and  _82
REMARK   35  A    between atoms: _91  and  _93
REMARK   36  A    between atoms: _93  and  _94
REMARK   37  A    between atoms: _93  and  _96
REMARK   38  A    between atoms: _96  and  _97
REMARK   39  A    between atoms: _100  and  _102
REMARK   40  A    between atoms: _102  and  _103
REMARK   41  A    between atoms: _106  and  _108
REMARK   42  A    between atoms: _108  and  _109
REMARK   43  A    between atoms: _108  and  _111
REMARK   44  A    between atoms: _111  and  _112
REMARK   45  A    between atoms: _118  and  _120
REMARK   46  A    between atoms: _120  and  _121
REMARK   47  A    between atoms: _120  and  _123
REMARK   48  A    between atoms: _123  and  _124
REMARK   49  A    between atoms: _129  and  _131
REMARK   50  A    between atoms: _131  and  _132
REMARK   51  A    between atoms: _131  and  _134
REMARK   52  A    between atoms: _134  and  _135
REMARK   53  A    between atoms: _138  and  _140
REMARK   54  A    between atoms: _140  and  _141
REMARK   55  A    between atoms: _140  and  _143
REMARK   56  A    between atoms: _143  and  _144
REMARK   57  A    between atoms: _149  and  _151
REMARK   58  A    between atoms: _151  and  _152
REMARK   59  A    between atoms: _151  and  _154
REMARK   60  A    between atoms: _154  and  _155
REMARK   61  A    between atoms: _161  and  _163
REMARK   62  A    between atoms: _163  and  _164
REMARK   63  A    between atoms: _163  and  _166
REMARK   64  A    between atoms: _166  and  _167
REMARK   65  A    between atoms: _173  and  _175
REMARK   66  A    between atoms: _175  and  _176
REMARK   67  A    between atoms: _175  and  _178
REMARK   68  A    between atoms: _178  and  _179
REMARK   69  A    between atoms: _179  and  _180
REMARK   70  A    between atoms: _180  and  _181
REMARK   71  A    between atoms: _190  and  _192
REMARK   72  A    between atoms: _192  and  _193
REMARK   73  A    between atoms: _192  and  _195
REMARK   74  A    between atoms: _195  and  _196
REMARK   75  A    between atoms: _201  and  _203
REMARK   76  A    between atoms: _203  and  _204
REMARK   77  A    between atoms: _203  and  _206
REMARK   78  A    between atoms: _206  and  _207
REMARK   79  A    between atoms: _210  and  _212
REMARK   80  A    between atoms: _212  and  _213
REMARK   81  A    between atoms: _212  and  _215
REMARK   82  A    between atoms: _215  and  _216
REMARK   83  A    between atoms: _219  and  _221
REMARK   84  A    between atoms: _221  and  _222
REMARK   85  A    between atoms: _221  and  _224
REMARK   86  A    between atoms: _224  and  _225
REMARK   87  A    between atoms: _230  and  _232
REMARK   88  A    between atoms: _232  and  _233
REMARK   89  A    between atoms: _232  and  _235
REMARK   90  A    between atoms: _235  and  _236
REMARK   91  A    between atoms: _239  and  _241
REMARK   92  A    between atoms: _241  and  _242
REMARK   93  A    between atoms: _241  and  _244
REMARK   94  A    between atoms: _244  and  _245
REMARK   95  A    between atoms: _250  and  _252
REMARK   96  A    between atoms: _252  and  _253
REMARK   97  A    between atoms: _252  and  _255
REMARK   98  A    between atoms: _255  and  _256
REMARK   99  A    between atoms: _261  and  _263
REMARK  100  A    between atoms: _263  and  _264
REMARK  101  A    between atoms: _263  and  _266
REMARK  102  A    between atoms: _266  and  _267
REMARK  103  A    between atoms: _270  and  _272
REMARK  104  A    between atoms: _272  and  _273
REMARK  105  A    between atoms: _272  and  _275
REMARK  106  A    between atoms: _278  and  _280
REMARK  107  A    between atoms: _280  and  _281
REMARK  108  A    between atoms: _280  and  _283
REMARK  109  A    between atoms: _283  and  _284
REMARK  110  A    between atoms: _287  and  _289
REMARK  111  A    between atoms: _289  and  _290
REMARK  112  A    between atoms: _293  and  _295
REMARK  113  A    between atoms: _295  and  _296
REMARK  114  A    between atoms: _295  and  _298
REMARK  115  A    between atoms: _298  and  _299
REMARK  116  A    between atoms: _302  and  _304
REMARK  117  A    between atoms: _304  and  _305
REMARK  118  A    between atoms: _304  and  _307
REMARK  119  A    between atoms: _307  and  _308
REMARK  120  A    between atoms: _308  and  _309
REMARK  121  A    between atoms: _312  and  _314
REMARK  122  A    between atoms: _314  and  _315
REMARK  123  A    between atoms: _314  and  _317
REMARK  124  A    between atoms: _317  and  _318
REMARK  125  A    between atoms: _323  and  _325
REMARK  126  A    between atoms: _325  and  _326
REMARK  127  A    between atoms: _328  and  _330
REMARK  128  A    between atoms: _330  and  _331
REMARK  129  A    between atoms: _330  and  _333
REMARK  130  A    between atoms: _336  and  _338
REMARK  131  A    between atoms: _338  and  _339
REMARK  132  A    between atoms: _342  and  _344
REMARK  133  A    between atoms: _344  and  _345
REMARK  134  A    between atoms: _344  and  _347
REMARK  135  A    between atoms: _347  and  _348
REMARK  136  A    between atoms: _353  and  _355
REMARK  137  A    between atoms: _355  and  _356
REMARK  138  A    between atoms: _355  and  _358
REMARK  139  A    between atoms: _358  and  _359
REMARK  140  A    between atoms: _359  and  _360
REMARK  141  A    between atoms: _360  and  _361
REMARK  142  A    between atoms: _361  and  _362
REMARK  143  A    between atoms: _366  and  _368
REMARK  144  A    between atoms: _368  and  _369
REMARK  145  A    between atoms: _368  and  _371
REMARK  146  A    between atoms: _371  and  _372
REMARK  147  A    between atoms: _377  and  _379
REMARK  148  A    between atoms: _379  and  _380
REMARK  149  A    between atoms: _382  and  _384
REMARK  150  A    between atoms: _384  and  _385
REMARK  151  A    between atoms: _384  and  _387
REMARK  152  A    between atoms: _387  and  _388
REMARK  153  A    between atoms: _391  and  _393
REMARK  154  A    between atoms: _393  and  _394
REMARK  155  A    between atoms: _393  and  _396
REMARK  156  A    between atoms: _396  and  _397
REMARK  157  A    between atoms: _397  and  _398
REMARK  158  A    between atoms: _398  and  _399
REMARK  159  A    between atoms: _399  and  _400
REMARK  160  A    between atoms: _404  and  _406
REMARK  161  A    between atoms: _406  and  _407
REMARK  162  A    between atoms: _406  and  _409
REMARK  163  A    between atoms: _409  and  _410
REMARK  164  A    between atoms: _410  and  _411
REMARK  165  A    between atoms: _411  and  _412
REMARK  166  A    between atoms: _421  and  _423
REMARK  167  A    between atoms: _423  and  _424
REMARK  168  A    between atoms: _423  and  _426
REMARK  169  A    between atoms: _426  and  _427
REMARK  170  A    between atoms: _432  and  _433
REMARK  171  A    between atoms: _435  and  _437
REMARK  172  A    between atoms: _437  and  _438
REMARK  173  A    between atoms: _437  and  _440
REMARK  174  A    between atoms: _440  and  _441
REMARK  175  A    between atoms: _441  and  _442
REMARK  176  A    between atoms: _442  and  _443
REMARK  177  A    between atoms: _443  and  _444
REMARK  178  A    between atoms: _448  and  _450
REMARK  179  A    between atoms: _450  and  _451
REMARK  180  A    between atoms: _450  and  _453
REMARK  181  A    between atoms: _453  and  _454
REMARK  182  A    between atoms: _456  and  _458
REMARK  183  A    between atoms: _458  and  _459
REMARK  184  A    between atoms: _458  and  _461
REMARK  185  A    between atoms: _461  and  _462
REMARK  186  A    between atoms: _465  and  _467
REMARK  187  A    between atoms: _467  and  _468
REMARK  188  A    between atoms: _467  and  _470
REMARK  189  A    between atoms: _470  and  _471
REMARK  190  A    between atoms: _471  and  _472
REMARK  191  A    between atoms: _475  and  _477
REMARK  192  A    between atoms: _477  and  _478
REMARK  193  A    between atoms: _481  and  _483
REMARK  194  A    between atoms: _483  and  _484
REMARK  195  A    between atoms: _483  and  _486
REMARK  196  A    between atoms: _486  and  _487
REMARK  197  A    between atoms: _489  and  _491
REMARK  198  A    between atoms: _491  and  _492
REMARK  199  A    between atoms: _494  and  _496
REMARK  200  A    between atoms: _496  and  _497
REMARK  201  A    between atoms: _496  and  _499
REMARK  202  A    between atoms: _499  and  _500
REMARK  203  A    between atoms: _503  and  _505
REMARK  204  A    between atoms: _505  and  _506
REMARK  205  A    between atoms: _508  and  _510
REMARK  206  A    between atoms: _510  and  _511
REMARK  207  A    between atoms: _510  and  _513
REMARK  208  A    between atoms: _513  and  _514
REMARK  209  A    between atoms: _519  and  _521
REMARK  210  A    between atoms: _521  and  _522
REMARK  211  A    between atoms: _521  and  _524
REMARK  212  A    between atoms: _524  and  _525
REMARK  213  A    between atoms: _525  and  _526
REMARK  214  A    between atoms: _533  and  _534
REMARK  215  A    between atoms: _534  and  _550
REMARK  216  A    between atoms: _535  and  _537
REMARK  217  A    between atoms: _537  and  _538
REMARK  218  A    between atoms: _538  and  _539
REMARK  219  A    between atoms: _543  and  _545
REMARK  220  A    between atoms: _545  and  _546
REMARK  221  A    between atoms: _545  and  _553
REMARK  222  A    between atoms: _546  and  _547
REMARK  223  A    between atoms: _547  and  _548
REMARK  224  A    between atoms: _548  and  _549
REMARK  225  A    between atoms: _549  and  _550
REMARK  226  A    between atoms: _555  and  _557
REMARK  227  A    between atoms: _557  and  _558
REMARK  228  A    between atoms: _557  and  _560
REMARK  229  A    between atoms: _560  and  _561
REMARK  230  A    between atoms: _564  and  _566
REMARK  231  A    between atoms: _566  and  _567
REMARK  232  A    between atoms: _569  and  _571
REMARK  233  A    between atoms: _571  and  _572
REMARK  234  A    between atoms: _575  and  _577
REMARK  235  A    between atoms: _577  and  _578
REMARK  236  A    between atoms: _577  and  _580
REMARK  237  A    between atoms: _580  and  _581
REMARK  238  A    between atoms: _586  and  _587
REMARK                            x       y       z     vdW  Elec       q    Type
REMARK                         _______ _______ _______ _____ _____    ______ ____
ROOT
ATOM      1  CA  GLU A   1      31.827  20.813  39.195  0.00  0.00    +0.134 C 
ENDROOT
BRANCH   1   2
ATOM      2  N   GLU A   1      33.162  20.334  39.578  0.00  0.00    -0.239 NA
ATOM      3  H   GLU A   1      33.586  19.546  39.048  0.00  0.00    +0.142 HD
ENDBRANCH   1   2
BRANCH   1   4
ATOM      4  C   GLU A   1      30.867  19.668  38.901  0.00  0.00    +0.224 C 
ATOM      5  O   GLU A   1      31.217  18.736  38.173  0.00  0.00    -0.287 OA
ENDBRANCH   1   4
BRANCH   1   6
ATOM      6  CB  GLU A   1      31.902  21.740  37.973  0.00  0.00    +0.037 C 
BRANCH   6   7
ATOM      7  CG  GLU A   1      32.771  22.985  38.206  0.00  0.00    +0.116 C 
BRANCH   7   8
ATOM      8  CD  GLU A   1      32.731  23.966  37.051  0.00  0.00    +0.365 C 
ATOM      9  OE2 GLU A   1      33.659  24.795  36.973  0.00  0.00    -0.246 OA
ATOM     10  OE1 GLU A   1      31.789  23.913  36.222  0.00  0.00    -0.246 OA
ENDBRANCH   7   8
ENDBRANCH   6   7
ENDBRANCH   1   6
TORSDOF 5
REMARK  Name = ../refined-set-2016/3l7b/3l7b_pocket.pdb
REMARK  238 active torsions:
REMARK  status: ('A' for Active; 'I' for Inactive)
REMARK    1  A    between atoms: _1  and  _3
REMARK    2  A    between atoms: _3  and  _4
REMARK    3  A    between atoms: _3  and  _6
REMARK    4  A    between atoms: _6  and  _7
REMARK    5  A    between atoms: _12  and  _13
REMARK    6  A    between atoms: _15  and  _17
REMARK    7  A    between atoms: _17  and  _18
REMARK    8  A    between atoms: _17  and  _20
REMARK    9  A    between atoms: _20  and  _21
REMARK   10  A    between atoms: _21  and  _22
REMARK   11  A    between atoms: _25  and  _27
REMARK   12  A    between atoms: _27  and  _28
REMARK   13  A    between atoms: _27  and  _30
REMARK   14  A    between atoms: _30  and  _31
REMARK   15  A    between atoms: _36  and  _37
REMARK   16  A    between atoms: _39  and  _41
REMARK   17  A    between atoms: _41  and  _42
REMARK   18  A    between atoms: _41  and  _44
REMARK   19  A    between atoms: _44  and  _45
REMARK   20  A    between atoms: _50  and  _52
REMARK   21  A    between atoms: _52  and  _53
REMARK   22  A    between atoms: _55  and  _57
REMARK   23  A    between atoms: _57  and  _58
REMARK   24  A    between atoms: _60  and  _62
REMARK   25  A    between atoms: _62  and  _63
REMARK   26  A    between atoms: _62  and  _65
REMARK   27  A    between atoms: _65  and  _66
REMARK   28  A    between atoms: _69  and  _71
REMARK   29  A    between atoms: _71  and  _72
REMARK   30  A    between atoms: _74  and  _76
REMARK   31  A    between atoms: _76  and  _77
REMARK   32  A    between atoms: _76  and  _79
REMARK   33  A    between atoms: _80  and  _81
REMARK   34  A    between atoms: _81  and  _82
REMARK   35  A    between atoms: _91  and  _93
REMARK   36  A    between atoms: _93  and  _94
REMARK   37  A    between atoms: _93  and  _96
REMARK   38  A    between atoms: _96  and  _97
REMARK   39  A    between atoms: _100  and  _102
REMARK   40  A    between atoms: _102  and  _103
REMARK   41  A    between atoms: _106  and  _108
REMARK   42  A    between atoms: _108  and  _109
REMARK   43  A    between atoms: _108  and  _111
REMARK   44  A    between atoms: _111  and  _112
REMARK   45  A    between atoms: _118  and  _120
REMARK   46  A    between atoms: _120  and  _121
REMARK   47  A    between atoms: _120  and  _123
REMARK   48  A    between atoms: _123  and  _124
REMARK   49  A    between atoms: _129  and  _131
REMARK   50  A    between atoms: _131  and  _132
REMARK   51  A    between atoms: _131  and  _134
REMARK   52  A    between atoms: _134  and  _135
REMARK   53  A    between atoms: _138  and  _140
REMARK   54  A    between atoms: _140  and  _141
REMARK   55  A    between atoms: _140  and  _143
REMARK   56  A    between atoms: _143  and  _144
REMARK   57  A    between atoms: _149  and  _151
REMARK   58  A    between atoms: _151  and  _152
REMARK   59  A    between atoms: _151  and  _154
REMARK   60  A    between atoms: _154  and  _155
REMARK   61  A    between atoms: _161  and  _163
REMARK   62  A    between atoms: _163  and  _164
REMARK   63  A    between atoms: _163  and  _166
REMARK   64  A    between atoms: _166  and  _167
REMARK   65  A    between atoms: _173  and  _175
REMARK   66  A    between atoms: _175  and  _176
REMARK   67  A    between atoms: _175  and  _178
REMARK   68  A    between atoms: _178  and  _179
REMARK   69  A    between atoms: _179  and  _180
REMARK   70  A    between atoms: _180  and  _181
REMARK   71  A    between atoms: _190  and  _192
REMARK   72  A    between atoms: _192  and  _193
REMARK   73  A    between atoms: _192  and  _195
REMARK   74  A    between atoms: _195  and  _196
REMARK   75  A    between atoms: _201  and  _203
REMARK   76  A    between atoms: _203  and  _204
REMARK   77  A    between atoms: _203  and  _206
REMARK   78  A    between atoms: _206  and  _207
REMARK   79  A    between atoms: _210  and  _212
REMARK   80  A    between atoms: _212  and  _213
REMARK   81  A    between atoms: _212  and  _215
REMARK   82  A    between atoms: _215  and  _216
REMARK   83  A    between atoms: _219  and  _221
REMARK   84  A    between atoms: _221  and  _222
REMARK   85  A    between atoms: _221  and  _224
REMARK   86  A    between atoms: _224  and  _225
REMARK   87  A    between atoms: _230  and  _232
REMARK   88  A    between atoms: _232  and  _233
REMARK   89  A    between atoms: _232  and  _235
REMARK   90  A    between atoms: _235  and  _236
REMARK   91  A    between atoms: _239  and  _241
REMARK   92  A    between atoms: _241  and  _242
REMARK   93  A    between atoms: _241  and  _244
REMARK   94  A    between atoms: _244  and  _245
REMARK   95  A    between atoms: _250  and  _252
REMARK   96  A    between atoms: _252  and  _253
REMARK   97  A    between atoms: _252  and  _255
REMARK   98  A    between atoms: _255  and  _256
REMARK   99  A    between atoms: _261  and  _263
REMARK  100  A    between atoms: _263  and  _264
REMARK  101  A    between atoms: _263  and  _266
REMARK  102  A    between atoms: _266  and  _267
REMARK  103  A    between atoms: _270  and  _272
REMARK  104  A    between atoms: _272  and  _273
REMARK  105  A    between atoms: _272  and  _275
REMARK  106  A    between atoms: _278  and  _280
REMARK  107  A    between atoms: _280  and  _281
REMARK  108  A    between atoms: _280  and  _283
REMARK  109  A    between atoms: _283  and  _284
REMARK  110  A    between atoms: _287  and  _289
REMARK  111  A    between atoms: _289  and  _290
REMARK  112  A    between atoms: _293  and  _295
REMARK  113  A    between atoms: _295  and  _296
REMARK  114  A    between atoms: _295  and  _298
REMARK  115  A    between atoms: _298  and  _299
REMARK  116  A    between atoms: _302  and  _304
REMARK  117  A    between atoms: _304  and  _305
REMARK  118  A    between atoms: _304  and  _307
REMARK  119  A    between atoms: _307  and  _308
REMARK  120  A    between atoms: _308  and  _309
REMARK  121  A    between atoms: _312  and  _314
REMARK  122  A    between atoms: _314  and  _315
REMARK  123  A    between atoms: _314  and  _317
REMARK  124  A    between atoms: _317  and  _318
REMARK  125  A    between atoms: _323  and  _325
REMARK  126  A    between atoms: _325  and  _326
REMARK  127  A    between atoms: _328  and  _330
REMARK  128  A    between atoms: _330  and  _331
REMARK  129  A    between atoms: _330  and  _333
REMARK  130  A    between atoms: _336  and  _338
REMARK  131  A    between atoms: _338  and  _339
REMARK  132  A    between atoms: _342  and  _344
REMARK  133  A    between atoms: _344  and  _345
REMARK  134  A    between atoms: _344  and  _347
REMARK  135  A    between atoms: _347  and  _348
REMARK  136  A    between atoms: _353  and  _355
REMARK  137  A    between atoms: _355  and  _356
REMARK  138  A    between atoms: _355  and  _358
REMARK  139  A    between atoms: _358  and  _359
REMARK  140  A    between atoms: _359  and  _360
REMARK  141  A    between atoms: _360  and  _361
REMARK  142  A    between atoms: _361  and  _362
REMARK  143  A    between atoms: _366  and  _368
REMARK  144  A    between atoms: _368  and  _369
REMARK  145  A    between atoms: _368  and  _371
REMARK  146  A    between atoms: _371  and  _372
REMARK  147  A    between atoms: _377  and  _379
REMARK  148  A    between atoms: _379  and  _380
REMARK  149  A    between atoms: _382  and  _384
REMARK  150  A    between atoms: _384  and  _385
REMARK  151  A    between atoms: _384  and  _387
REMARK  152  A    between atoms: _387  and  _388
REMARK  153  A    between atoms: _391  and  _393
REMARK  154  A    between atoms: _393  and  _394
REMARK  155  A    between atoms: _393  and  _396
REMARK  156  A    between atoms: _396  and  _397
REMARK  157  A    between atoms: _397  and  _398
REMARK  158  A    between atoms: _398  and  _399
REMARK  159  A    between atoms: _399  and  _400
REMARK  160  A    between atoms: _404  and  _406
REMARK  161  A    between atoms: _406  and  _407
REMARK  162  A    between atoms: _406  and  _409
REMARK  163  A    between atoms: _409  and  _410
REMARK  164  A    between atoms: _410  and  _411
REMARK  165  A    between atoms: _411  and  _412
REMARK  166  A    between atoms: _421  and  _423
REMARK  167  A    between atoms: _423  and  _424
REMARK  168  A    between atoms: _423  and  _426
REMARK  169  A    between atoms: _426  and  _427
REMARK  170  A    between atoms: _432  and  _433
REMARK  171  A    between atoms: _435  and  _437
REMARK  172  A    between atoms: _437  and  _438
REMARK  173  A    between atoms: _437  and  _440
REMARK  174  A    between atoms: _440  and  _441
REMARK  175  A    between atoms: _441  and  _442
REMARK  176  A    between atoms: _442  and  _443
REMARK  177  A    between atoms: _443  and  _444
REMARK  178  A    between atoms: _448  and  _450
REMARK  179  A    between atoms: _450  and  _451
REMARK  180  A    between atoms: _450  and  _453
REMARK  181  A    between atoms: _453  and  _454
REMARK  182  A    between atoms: _456  and  _458
REMARK  183  A    between atoms: _458  and  _459
REMARK  184  A    between atoms: _458  and  _461
REMARK  185  A    between atoms: _461  and  _462
REMARK  186  A    between atoms: _465  and  _467
REMARK  187  A    between atoms: _467  and  _468
REMARK  188  A    between atoms: _467  and  _470
REMARK  189  A    between atoms: _470  and  _471
REMARK  190  A    between atoms: _471  and  _472
REMARK  191  A    between atoms: _475  and  _477
REMARK  192  A    between atoms: _477  and  _478
REMARK  193  A    between atoms: _481  and  _483
REMARK  194  A    between atoms: _483  and  _484
REMARK  195  A    between atoms: _483  and  _486
REMARK  196  A    between atoms: _486  and  _487
REMARK  197  A    between atoms: _489  and  _491
REMARK  198  A    between atoms: _491  and  _492
REMARK  199  A    between atoms: _494  and  _496
REMARK  200  A    between atoms: _496  and  _497
REMARK  201  A    between atoms: _496  and  _499
REMARK  202  A    between atoms: _499  and  _500
REMARK  203  A    between atoms: _503  and  _505
REMARK  204  A    between atoms: _505  and  _506
REMARK  205  A    between atoms: _508  and  _510
REMARK  206  A    between atoms: _510  and  _511
REMARK  207  A    between atoms: _510  and  _513
REMARK  208  A    between atoms: _513  and  _514
REMARK  209  A    between atoms: _519  and  _521
REMARK  210  A    between atoms: _521  and  _522
REMARK  211  A    between atoms: _521  and  _524
REMARK  212  A    between atoms: _524  and  _525
REMARK  213  A    between atoms: _525  and  _526
REMARK  214  A    between atoms: _533  and  _534
REMARK  215  A    between atoms: _534  and  _550
REMARK  216  A    between atoms: _535  and  _537
REMARK  217  A    between atoms: _537  and  _538
REMARK  218  A    between atoms: _538  and  _539
REMARK  219  A    between atoms: _543  and  _545
REMARK  220  A    between atoms: _545  and  _546
REMARK  221  A    between atoms: _545  and  _553
REMARK  222  A    between atoms: _546  and  _547
REMARK  223  A    between atoms: _547  and  _548
REMARK  224  A    between atoms: _548  and  _549
REMARK  225  A    between atoms: _549  and  _550
REMARK  226  A    between atoms: _555  and  _557
REMARK  227  A    between atoms: _557  and  _558
REMARK  228  A    between atoms: _557  and  _560
REMARK  229  A    between atoms: _560  and  _561
REMARK  230  A    between atoms: _564  and  _566
REMARK  231  A    between atoms: _566  and  _567
REMARK  232  A    between atoms: _569  and  _571
REMARK  233  A    between atoms: _571  and  _572
REMARK  234  A    between atoms: _575  and  _577
REMARK  235  A    between atoms: _577  and  _578
REMARK  236  A    between atoms: _577  and  _580
REMARK  237  A    between atoms: _580  and  _581
REMARK  238  A    between atoms: _586  and  _587
REMARK                            x       y       z     vdW  Elec       q    Type
REMARK                         _______ _______ _______ _____ _____    ______ ____
ROOT
ATOM      1  CG  TYR A   1      25.573  22.983  35.944  0.00  0.00    -0.020 A 
ATOM      2  CD2 TYR A   1      24.597  23.490  36.802  0.00  0.00    -0.001 A 
ATOM      3  CE2 TYR A   1      24.071  24.765  36.596  0.00  0.00    +0.036 A 
ATOM      4  CZ  TYR A   1      24.515  25.503  35.510  0.00  0.00    +0.134 A 
ATOM      5  CE1 TYR A   1      25.450  25.008  34.646  0.00  0.00    +0.036 A 
ATOM      6  CD1 TYR A   1      25.974  23.759  34.860  0.00  0.00    -0.001 A 
ENDROOT
BRANCH   4   7
ATOM      7  OH  TYR A   1      24.020  26.749  35.252  0.00  0.00    -0.506 OA
ATOM      8  HH  TYR A   1      24.761  27.406  35.261  0.00  0.00    +0.292 HD
ENDBRANCH   4   7
BRANCH   1   9
ATOM      9  CB  TYR A   1      26.157  21.613  36.124  0.00  0.00    +0.051 C 
BRANCH   9  10
ATOM     10  CA  TYR A   1      25.848  20.900  37.427  0.00  0.00    +0.137 C 
BRANCH  10  11
ATOM     11  N   TYR A   1      26.933  19.970  37.712  0.00  0.00    -0.239 NA
ATOM     12  H   TYR A   1      27.416  19.496  36.922  0.00  0.00    +0.142 HD
ENDBRANCH  10  11
BRANCH  10  13
ATOM     13  C   TYR A   1      24.532  20.109  37.312  0.00  0.00    +0.224 C 
ATOM     14  O   TYR A   1      24.096  19.797  36.208  0.00  0.00    -0.287 OA
ENDBRANCH  10  13
ENDBRANCH   9  10
ENDBRANCH   1   9
TORSDOF 5
REMARK  Name = ../refined-set-2016/3l7b/3l7b_pocket.pdb
REMARK  238 active torsions:
REMARK  status: ('A' for Active; 'I' for Inactive)
REMARK    1  A    between atoms: _1  and  _3
REMARK    2  A    between atoms: _3  and  _4
REMARK    3  A    between atoms: _3  and  _6
REMARK    4  A    between atoms: _6  and  _7
REMARK    5  A    between atoms: _12  and  _13
REMARK    6  A    between atoms: _15  and  _17
REMARK    7  A    between atoms: _17  and  _18
REMARK    8  A    between atoms: _17  and  _20
REMARK    9  A    between atoms: _20  and  _21
REMARK   10  A    between atoms: _21  and  _22
REMARK   11  A    between atoms: _25  and  _27
REMARK   12  A    between atoms: _27  and  _28
REMARK   13  A    between atoms: _27  and  _30
REMARK   14  A    between atoms: _30  and  _31
REMARK   15  A    between atoms: _36  and  _37
REMARK   16  A    between atoms: _39  and  _41
REMARK   17  A    between atoms: _41  and  _42
REMARK   18  A    between atoms: _41  and  _44
REMARK   19  A    between atoms: _44  and  _45
REMARK   20  A    between atoms: _50  and  _52
REMARK   21  A    between atoms: _52  and  _53
REMARK   22  A    between atoms: _55  and  _57
REMARK   23  A    between atoms: _57  and  _58
REMARK   24  A    between atoms: _60  and  _62
REMARK   25  A    between atoms: _62  and  _63
REMARK   26  A    between atoms: _62  and  _65
REMARK   27  A    between atoms: _65  and  _66
REMARK   28  A    between atoms: _69  and  _71
REMARK   29  A    between atoms: _71  and  _72
REMARK   30  A    between atoms: _74  and  _76
REMARK   31  A    between atoms: _76  and  _77
REMARK   32  A    between atoms: _76  and  _79
REMARK   33  A    between atoms: _80  and  _81
REMARK   34  A    between atoms: _81  and  _82
REMARK   35  A    between atoms: _91  and  _93
REMARK   36  A    between atoms: _93  and  _94
REMARK   37  A    between atoms: _93  and  _96
REMARK   38  A    between atoms: _96  and  _97
REMARK   39  A    between atoms: _100  and  _102
REMARK   40  A    between atoms: _102  and  _103
REMARK   41  A    between atoms: _106  and  _108
REMARK   42  A    between atoms: _108  and  _109
REMARK   43  A    between atoms: _108  and  _111
REMARK   44  A    between atoms: _111  and  _112
REMARK   45  A    between atoms: _118  and  _120
REMARK   46  A    between atoms: _120  and  _121
REMARK   47  A    between atoms: _120  and  _123
REMARK   48  A    between atoms: _123  and  _124
REMARK   49  A    between atoms: _129  and  _131
REMARK   50  A    between atoms: _131  and  _132
REMARK   51  A    between atoms: _131  and  _134
REMARK   52  A    between atoms: _134  and  _135
REMARK   53  A    between atoms: _138  and  _140
REMARK   54  A    between atoms: _140  and  _141
REMARK   55  A    between atoms: _140  and  _143
REMARK   56  A    between atoms: _143  and  _144
REMARK   57  A    between atoms: _149  and  _151
REMARK   58  A    between atoms: _151  and  _152
REMARK   59  A    between atoms: _151  and  _154
REMARK   60  A    between atoms: _154  and  _155
REMARK   61  A    between atoms: _161  and  _163
REMARK   62  A    between atoms: _163  and  _164
REMARK   63  A    between atoms: _163  and  _166
REMARK   64  A    between atoms: _166  and  _167
REMARK   65  A    between atoms: _173  and  _175
REMARK   66  A    between atoms: _175  and  _176
REMARK   67  A    between atoms: _175  and  _178
REMARK   68  A    between atoms: _178  and  _179
REMARK   69  A    between atoms: _179  and  _180
REMARK   70  A    between atoms: _180  and  _181
REMARK   71  A    between atoms: _190  and  _192
REMARK   72  A    between atoms: _192  and  _193
REMARK   73  A    between atoms: _192  and  _195
REMARK   74  A    between atoms: _195  and  _196
REMARK   75  A    between atoms: _201  and  _203
REMARK   76  A    between atoms: _203  and  _204
REMARK   77  A    between atoms: _203  and  _206
REMARK   78  A    between atoms: _206  and  _207
REMARK   79  A    between atoms: _210  and  _212
REMARK   80  A    between atoms: _212  and  _213
REMARK   81  A    between atoms: _212  and  _215
REMARK   82  A    between atoms: _215  and  _216
REMARK   83  A    between atoms: _219  and  _221
REMARK   84  A    between atoms: _221  and  _222
REMARK   85  A    between atoms: _221  and  _224
REMARK   86  A    between atoms: _224  and  _225
REMARK   87  A    between atoms: _230  and  _232
REMARK   88  A    between atoms: _232  and  _233
REMARK   89  A    between atoms: _232  and  _235
REMARK   90  A    between atoms: _235  and  _236
REMARK   91  A    between atoms: _239  and  _241
REMARK   92  A    between atoms: _241  and  _242
REMARK   93  A    between atoms: _241  and  _244
REMARK   94  A    between atoms: _244  and  _245
REMARK   95  A    between atoms: _250  and  _252
REMARK   96  A    between atoms: _252  and  _253
REMARK   97  A    between atoms: _252  and  _255
REMARK   98  A    between atoms: _255  and  _256
REMARK   99  A    between atoms: _261  and  _263
REMARK  100  A    between atoms: _263  and  _264
REMARK  101  A    between atoms: _263  and  _266
REMARK  102  A    between atoms: _266  and  _267
REMARK  103  A    between atoms: _270  and  _272
REMARK  104  A    between atoms: _272  and  _273
REMARK  105  A    between atoms: _272  and  _275
REMARK  106  A    between atoms: _278  and  _280
REMARK  107  A    between atoms: _280  and  _281
REMARK  108  A    between atoms: _280  and  _283
REMARK  109  A    between atoms: _283  and  _284
REMARK  110  A    between atoms: _287  and  _289
REMARK  111  A    between atoms: _289  and  _290
REMARK  112  A    between atoms: _293  and  _295
REMARK  113  A    between atoms: _295  and  _296
REMARK  114  A    between atoms: _295  and  _298
REMARK  115  A    between atoms: _298  and  _299
REMARK  116  A    between atoms: _302  and  _304
REMARK  117  A    between atoms: _304  and  _305
REMARK  118  A    between atoms: _304  and  _307
REMARK  119  A    between atoms: _307  and  _308
REMARK  120  A    between atoms: _308  and  _309
REMARK  121  A    between atoms: _312  and  _314
REMARK  122  A    between atoms: _314  and  _315
REMARK  123  A    between atoms: _314  and  _317
REMARK  124  A    between atoms: _317  and  _318
REMARK  125  A    between atoms: _323  and  _325
REMARK  126  A    between atoms: _325  and  _326
REMARK  127  A    between atoms: _328  and  _330
REMARK  128  A    between atoms: _330  and  _331
REMARK  129  A    between atoms: _330  and  _333
REMARK  130  A    between atoms: _336  and  _338
REMARK  131  A    between atoms: _338  and  _339
REMARK  132  A    between atoms: _342  and  _344
REMARK  133  A    between atoms: _344  and  _345
REMARK  134  A    between atoms: _344  and  _347
REMARK  135  A    between atoms: _347  and  _348
REMARK  136  A    between atoms: _353  and  _355
REMARK  137  A    between atoms: _355  and  _356
REMARK  138  A    between atoms: _355  and  _358
REMARK  139  A    between atoms: _358  and  _359
REMARK  140  A    between atoms: _359  and  _360
REMARK  141  A    between atoms: _360  and  _361
REMARK  142  A    between atoms: _361  and  _362
REMARK  143  A    between atoms: _366  and  _368
REMARK  144  A    between atoms: _368  and  _369
REMARK  145  A    between atoms: _368  and  _371
REMARK  146  A    between atoms: _371  and  _372
REMARK  147  A    between atoms: _377  and  _379
REMARK  148  A    between atoms: _379  and  _380
REMARK  149  A    between atoms: _382  and  _384
REMARK  150  A    between atoms: _384  and  _385
REMARK  151  A    between atoms: _384  and  _387
REMARK  152  A    between atoms: _387  and  _388
REMARK  153  A    between atoms: _391  and  _393
REMARK  154  A    between atoms: _393  and  _394
REMARK  155  A    between atoms: _393  and  _396
REMARK  156  A    between atoms: _396  and  _397
REMARK  157  A    between atoms: _397  and  _398
REMARK  158  A    between atoms: _398  and  _399
REMARK  159  A    between atoms: _399  and  _400
REMARK  160  A    between atoms: _404  and  _406
REMARK  161  A    between atoms: _406  and  _407
REMARK  162  A    between atoms: _406  and  _409
REMARK  163  A    between atoms: _409  and  _410
REMARK  164  A    between atoms: _410  and  _411
REMARK  165  A    between atoms: _411  and  _412
REMARK  166  A    between atoms: _421  and  _423
REMARK  167  A    between atoms: _423  and  _424
REMARK  168  A    between atoms: _423  and  _426
REMARK  169  A    between atoms: _426  and  _427
REMARK  170  A    between atoms: _432  and  _433
REMARK  171  A    between atoms: _435  and  _437
REMARK  172  A    between atoms: _437  and  _438
REMARK  173  A    between atoms: _437  and  _440
REMARK  174  A    between atoms: _440  and  _441
REMARK  175  A    between atoms: _441  and  _442
REMARK  176  A    between atoms: _442  and  _443
REMARK  177  A    between atoms: _443  and  _444
REMARK  178  A    between atoms: _448  and  _450
REMARK  179  A    between atoms: _450  and  _451
REMARK  180  A    between atoms: _450  and  _453
REMARK  181  A    between atoms: _453  and  _454
REMARK  182  A    between atoms: _456  and  _458
REMARK  183  A    between atoms: _458  and  _459
REMARK  184  A    between atoms: _458  and  _461
REMARK  185  A    between atoms: _461  and  _462
REMARK  186  A    between atoms: _465  and  _467
REMARK  187  A    between atoms: _467  and  _468
REMARK  188  A    between atoms: _467  and  _470
REMARK  189  A    between atoms: _470  and  _471
REMARK  190  A    between atoms: _471  and  _472
REMARK  191  A    between atoms: _475  and  _477
REMARK  192  A    between atoms: _477  and  _478
REMARK  193  A    between atoms: _481  and  _483
REMARK  194  A    between atoms: _483  and  _484
REMARK  195  A    between atoms: _483  and  _486
REMARK  196  A    between atoms: _486  and  _487
REMARK  197  A    between atoms: _489  and  _491
REMARK  198  A    between atoms: _491  and  _492
REMARK  199  A    between atoms: _494  and  _496
REMARK  200  A    between atoms: _496  and  _497
REMARK  201  A    between atoms: _496  and  _499
REMARK  202  A    between atoms: _499  and  _500
REMARK  203  A    between atoms: _503  and  _505
REMARK  204  A    between atoms: _505  and  _506
REMARK  205  A    between atoms: _508  and  _510
REMARK  206  A    between atoms: _510  and  _511
REMARK  207  A    between atoms: _510  and  _513
REMARK  208  A    between atoms: _513  and  _514
REMARK  209  A    between atoms: _519  and  _521
REMARK  210  A    between atoms: _521  and  _522
REMARK  211  A    between atoms: _521  and  _524
REMARK  212  A    between atoms: _524  and  _525
REMARK  213  A    between atoms: _525  and  _526
REMARK  214  A    between atoms: _533  and  _534
REMARK  215  A    between atoms: _534  and  _550
REMARK  216  A    between atoms: _535  and  _537
REMARK  217  A    between atoms: _537  and  _538
REMARK  218  A    between atoms: _538  and  _539
REMARK  219  A    between atoms: _543  and  _545
REMARK  220  A    between atoms: _545  and  _546
REMARK  221  A    between atoms: _545  and  _553
REMARK  222  A    between atoms: _546  and  _547
REMARK  223  A    between atoms: _547  and  _548
REMARK  224  A    between atoms: _548  and  _549
REMARK  225  A    between atoms: _549  and  _550
REMARK  226  A    between atoms: _555  and  _557
REMARK  227  A    between atoms: _557  and  _558
REMARK  228  A    between atoms: _557  and  _560
REMARK  229  A    between atoms: _560  and  _561
REMARK  230  A    between atoms: _564  and  _566
REMARK  231  A    between atoms: _566  and  _567
REMARK  232  A    between atoms: _569  and  _571
REMARK  233  A    between atoms: _571  and  _572
REMARK  234  A    between atoms: _575  and  _577
REMARK  235  A    between atoms: _577  and  _578
REMARK  236  A    between atoms: _577  and  _580
REMARK  237  A    between atoms: _580  and  _581
REMARK  238  A    between atoms: _586  and  _587
REMARK                            x       y       z     vdW  Elec       q    Type
REMARK                         _______ _______ _______ _____ _____    ______ ____
ROOT
ATOM      1  C   GLY A   5      28.659  19.917  34.585  0.00  0.00    +0.243 C 
ATOM      2  O   GLY A   5      28.297  18.970  35.274  0.00  0.00    -0.273 OA
ATOM      3  N   ARG A   6      27.997  20.294  33.497  0.00  0.00    -0.294 N 
ATOM      4  H   ARG A   6      28.337  21.107  32.945  0.00  0.00    +0.150 HD
ENDROOT
BRANCH   3   5
ATOM      5  CA  ARG A   6      26.778  19.569  33.060  0.00  0.00    +0.171 C 
BRANCH   5   6
ATOM      6  C   ARG A   6      27.146  18.203  32.489  0.00  0.00    +0.245 C 
ATOM      7  O   ARG A   6      26.401  17.248  32.672  0.00  0.00    -0.273 OA
ATOM      8  N   LEU A   7      28.315  18.101  31.846  0.00  0.00    -0.297 N 
ATOM      9  H   LEU A   7      28.894  18.953  31.705  0.00  0.00    +0.150 HD
BRANCH   8  10
ATOM     10  CA  LEU A   7      28.798  16.812  31.336  0.00  0.00    +0.149 C 
BRANCH  10  11
ATOM     11  C   LEU A   7      28.971  15.793  32.461  0.00  0.00    +0.241 C 
ATOM     12  N   ALA A   8      29.563  16.232  33.578  0.00  0.00    -0.298 N 
ATOM     13  H   ALA A   8      29.933  17.204  33.604  0.00  0.00    +0.150 HD
ATOM     14  O   LEU A   7      28.569  14.639  32.322  0.00  0.00    -0.273 OA
BRANCH  12  15
ATOM     15  CA  ALA A   8      29.705  15.394  34.754  0.00  0.00    +0.137 C 
ATOM     16  CB  ALA A   8      30.435  16.151  35.869  0.00  0.00    +0.030 C 
BRANCH  15  17
ATOM     17  C   ALA A   8      28.333  14.893  35.240  0.00  0.00    +0.227 C 
ATOM     18  O   ALA A   8      28.202  13.740  35.623  0.00  0.00    -0.286 OA
ENDBRANCH  15  17
ENDBRANCH  12  15
ENDBRANCH  10  11
BRANCH  10  19
ATOM     19  CB  LEU A   7      30.115  16.963  30.556  0.00  0.00    +0.029 C 
BRANCH  19  20
ATOM     20  CG  LEU A   7      30.574  15.704  29.788  0.00  0.00    +0.002 C 
ATOM     21  CD2 LEU A   7      32.087  15.728  29.520  0.00  0.00    +0.000 C 
ATOM     22  CD1 LEU A   7      29.806  15.538  28.484  0.00  0.00    +0.000 C 
ENDBRANCH  19  20
ENDBRANCH  10  19
ENDBRANCH   8  10
ENDBRANCH   5   6
BRANCH   5  23
ATOM     23  CB  ARG A   6      25.959  20.424  32.077  0.00  0.00    +0.001 C 
ATOM     24  CG  ARG A   6      24.617  19.848  31.503  0.00  0.00    +0.014 C 
BRANCH  24  25
ATOM     25  CD  ARG A   6      24.072  18.521  32.066  0.00  0.00    +0.200 C 
BRANCH  25  26
ATOM     26  NE  ARG A   6      23.236  18.644  33.229  0.00  0.00    -0.261 N 
ATOM     27  CZ  ARG A   6      22.458  17.681  33.738  0.00  0.00    +0.342 C 
ATOM     28  NH2 ARG A   6      21.778  17.953  34.821  0.00  0.00    -0.292 N 
ATOM     29 HH21 ARG A   6      21.852  18.893  35.259  0.00  0.00    +0.255 HD
ATOM     30 HH22 ARG A   6      21.163  17.229  35.245  0.00  0.00    +0.255 HD
ATOM     31  NH1 ARG A   6      22.358  16.462  33.210  0.00  0.00    -0.292 N 
ATOM     32 HH11 ARG A   6      21.736  15.754  33.650  0.00  0.00    +0.255 HD
ATOM     33 HH12 ARG A   6      22.902  16.218  32.358  0.00  0.00    +0.255 HD
ATOM     34  HE  ARG A   6      23.236  19.562  33.718  0.00  0.00    +0.259 HD
ENDBRANCH  25  26
ENDBRANCH  24  25
ENDBRANCH   5  23
ENDBRANCH   3   5
BRANCH   1  35
ATOM     35  CA  GLY A   5      29.892  20.738  34.973  0.00  0.00    +0.176 C 
BRANCH  35  37
ATOM     36  C   LEU A   4      31.320  20.293  33.050  0.00  0.00    +0.241 C 
ATOM     37  N   GLY A   5      30.675  21.176  33.815  0.00  0.00    -0.295 N 
ATOM     38  H   GLY A   5      30.729  22.189  33.586  0.00  0.00    +0.150 HD
ATOM     39  O   LEU A   4      31.340  19.079  33.298  0.00  0.00    -0.273 OA
BRANCH  36  40
ATOM     40  CA  LEU A   4      32.060  20.844  31.816  0.00  0.00    +0.149 C 
BRANCH  40  42
ATOM     41  C   GLY A   3      30.121  21.446  30.482  0.00  0.00    +0.243 C 
ATOM     42  N   LEU A   4      31.238  21.814  31.098  0.00  0.00    -0.297 N 
ATOM     43  H   LEU A   4      31.533  22.811  31.069  0.00  0.00    +0.150 HD
ATOM     44  O   GLY A   3      29.722  20.275  30.475  0.00  0.00    -0.273 OA
BRANCH  41  45
ATOM     45  CA  GLY A   3      29.360  22.540  29.753  0.00  0.00    +0.176 C 
BRANCH  45  48
ATOM     46  C   GLY A   2      28.638  23.955  31.628  0.00  0.00    +0.243 C 
ATOM     47  O   GLY A   2      28.272  23.010  32.329  0.00  0.00    -0.273 OA
ATOM     48  N   GLY A   3      29.261  23.823  30.455  0.00  0.00    -0.295 N 
ATOM     49  H   GLY A   3      29.693  24.664  30.022  0.00  0.00    +0.150 HD
BRANCH  46  50
ATOM     50  CA  GLY A   2      28.397  25.361  32.088  0.00  0.00    +0.176 C 
BRANCH  50  53
ATOM     51  C   ASN A   1      28.781  26.735  34.041  0.00  0.00    +0.239 C 
ATOM     52  O   ASN A   1      28.065  27.623  33.593  0.00  0.00    -0.274 OA
ATOM     53  N   GLY A   2      28.969  25.583  33.409  0.00  0.00    -0.296 N 
ATOM     54  H   GLY A   2      29.529  24.833  33.861  0.00  0.00    +0.150 HD
BRANCH  51  55
ATOM     55  CA  ASN A   1      29.521  26.915  35.361  0.00  0.00    +0.154 C 
BRANCH  55  56
ATOM     56  N   ASN A   1      29.555  25.707  36.182  0.00  0.00    -0.238 NA
ATOM     57  H   ASN A   1      30.270  24.983  35.967  0.00  0.00    +0.142 HD
ENDBRANCH  55  56
BRANCH  55  58
ATOM     58  CB  ASN A   1      30.963  27.347  35.071  0.00  0.00    +0.111 C 
BRANCH  58  59
ATOM     59  CG  ASN A   1      31.563  28.127  36.215  0.00  0.00    +0.221 C 
ATOM     60  ND2 ASN A   1      32.443  27.487  36.985  0.00  0.00    -0.329 N 
ATOM     61 HD21 ASN A   1      32.876  27.974  37.795  0.00  0.00    +0.145 HD
ATOM     62 HD22 ASN A   1      32.696  26.500  36.776  0.00  0.00    +0.145 HD
ATOM     63  OD1 ASN A   1      31.228  29.294  36.418  0.00  0.00    -0.275 OA
ENDBRANCH  58  59
ENDBRANCH  55  58
ENDBRANCH  51  55
ENDBRANCH  50  53
ENDBRANCH  46  50
ENDBRANCH  45  48
ENDBRANCH  41  45
ENDBRANCH  40  42
BRANCH  40  64
ATOM     64  CB  LEU A   4      33.430  21.460  32.179  0.00  0.00    +0.029 C 
BRANCH  64  65
ATOM     65  CG  LEU A   4      34.381  20.713  33.122  0.00  0.00    +0.002 C 
ATOM     66  CD2 LEU A   4      34.043  21.093  34.561  0.00  0.00    +0.000 C 
ATOM     67  CD1 LEU A   4      35.854  21.073  32.825  0.00  0.00    +0.000 C 
ENDBRANCH  64  65
ENDBRANCH  40  64
ENDBRANCH  36  40
ENDBRANCH  35  37
ENDBRANCH   1  35
TORSDOF 25
REMARK  Name = ../refined-set-2016/3l7b/3l7b_pocket.pdb
REMARK  238 active torsions:
REMARK  status: ('A' for Active; 'I' for Inactive)
REMARK    1  A    between atoms: _1  and  _3
REMARK    2  A    between atoms: _3  and  _4
REMARK    3  A    between atoms: _3  and  _6
REMARK    4  A    between atoms: _6  and  _7
REMARK    5  A    between atoms: _12  and  _13
REMARK    6  A    between atoms: _15  and  _17
REMARK    7  A    between atoms: _17  and  _18
REMARK    8  A    between atoms: _17  and  _20
REMARK    9  A    between atoms: _20  and  _21
REMARK   10  A    between atoms: _21  and  _22
REMARK   11  A    between atoms: _25  and  _27
REMARK   12  A    between atoms: _27  and  _28
REMARK   13  A    between atoms: _27  and  _30
REMARK   14  A    between atoms: _30  and  _31
REMARK   15  A    between atoms: _36  and  _37
REMARK   16  A    between atoms: _39  and  _41
REMARK   17  A    between atoms: _41  and  _42
REMARK   18  A    between atoms: _41  and  _44
REMARK   19  A    between atoms: _44  and  _45
REMARK   20  A    between atoms: _50  and  _52
REMARK   21  A    between atoms: _52  and  _53
REMARK   22  A    between atoms: _55  and  _57
REMARK   23  A    between atoms: _57  and  _58
REMARK   24  A    between atoms: _60  and  _62
REMARK   25  A    between atoms: _62  and  _63
REMARK   26  A    between atoms: _62  and  _65
REMARK   27  A    between atoms: _65  and  _66
REMARK   28  A    between atoms: _69  and  _71
REMARK   29  A    between atoms: _71  and  _72
REMARK   30  A    between atoms: _74  and  _76
REMARK   31  A    between atoms: _76  and  _77
REMARK   32  A    between atoms: _76  and  _79
REMARK   33  A    between atoms: _80  and  _81
REMARK   34  A    between atoms: _81  and  _82
REMARK   35  A    between atoms: _91  and  _93
REMARK   36  A    between atoms: _93  and  _94
REMARK   37  A    between atoms: _93  and  _96
REMARK   38  A    between atoms: _96  and  _97
REMARK   39  A    between atoms: _100  and  _102
REMARK   40  A    between atoms: _102  and  _103
REMARK   41  A    between atoms: _106  and  _108
REMARK   42  A    between atoms: _108  and  _109
REMARK   43  A    between atoms: _108  and  _111
REMARK   44  A    between atoms: _111  and  _112
REMARK   45  A    between atoms: _118  and  _120
REMARK   46  A    between atoms: _120  and  _121
REMARK   47  A    between atoms: _120  and  _123
REMARK   48  A    between atoms: _123  and  _124
REMARK   49  A    between atoms: _129  and  _131
REMARK   50  A    between atoms: _131  and  _132
REMARK   51  A    between atoms: _131  and  _134
REMARK   52  A    between atoms: _134  and  _135
REMARK   53  A    between atoms: _138  and  _140
REMARK   54  A    between atoms: _140  and  _141
REMARK   55  A    between atoms: _140  and  _143
REMARK   56  A    between atoms: _143  and  _144
REMARK   57  A    between atoms: _149  and  _151
REMARK   58  A    between atoms: _151  and  _152
REMARK   59  A    between atoms: _151  and  _154
REMARK   60  A    between atoms: _154  and  _155
REMARK   61  A    between atoms: _161  and  _163
REMARK   62  A    between atoms: _163  and  _164
REMARK   63  A    between atoms: _163  and  _166
REMARK   64  A    between atoms: _166  and  _167
REMARK   65  A    between atoms: _173  and  _175
REMARK   66  A    between atoms: _175  and  _176
REMARK   67  A    between atoms: _175  and  _178
REMARK   68  A    between atoms: _178  and  _179
REMARK   69  A    between atoms: _179  and  _180
REMARK   70  A    between atoms: _180  and  _181
REMARK   71  A    between atoms: _190  and  _192
REMARK   72  A    between atoms: _192  and  _193
REMARK   73  A    between atoms: _192  and  _195
REMARK   74  A    between atoms: _195  and  _196
REMARK   75  A    between atoms: _201  and  _203
REMARK   76  A    between atoms: _203  and  _204
REMARK   77  A    between atoms: _203  and  _206
REMARK   78  A    between atoms: _206  and  _207
REMARK   79  A    between atoms: _210  and  _212
REMARK   80  A    between atoms: _212  and  _213
REMARK   81  A    between atoms: _212  and  _215
REMARK   82  A    between atoms: _215  and  _216
REMARK   83  A    between atoms: _219  and  _221
REMARK   84  A    between atoms: _221  and  _222
REMARK   85  A    between atoms: _221  and  _224
REMARK   86  A    between atoms: _224  and  _225
REMARK   87  A    between atoms: _230  and  _232
REMARK   88  A    between atoms: _232  and  _233
REMARK   89  A    between atoms: _232  and  _235
REMARK   90  A    between atoms: _235  and  _236
REMARK   91  A    between atoms: _239  and  _241
REMARK   92  A    between atoms: _241  and  _242
REMARK   93  A    between atoms: _241  and  _244
REMARK   94  A    between atoms: _244  and  _245
REMARK   95  A    between atoms: _250  and  _252
REMARK   96  A    between atoms: _252  and  _253
REMARK   97  A    between atoms: _252  and  _255
REMARK   98  A    between atoms: _255  and  _256
REMARK   99  A    between atoms: _261  and  _263
REMARK  100  A    between atoms: _263  and  _264
REMARK  101  A    between atoms: _263  and  _266
REMARK  102  A    between atoms: _266  and  _267
REMARK  103  A    between atoms: _270  and  _272
REMARK  104  A    between atoms: _272  and  _273
REMARK  105  A    between atoms: _272  and  _275
REMARK  106  A    between atoms: _278  and  _280
REMARK  107  A    between atoms: _280  and  _281
REMARK  108  A    between atoms: _280  and  _283
REMARK  109  A    between atoms: _283  and  _284
REMARK  110  A    between atoms: _287  and  _289
REMARK  111  A    between atoms: _289  and  _290
REMARK  112  A    between atoms: _293  and  _295
REMARK  113  A    between atoms: _295  and  _296
REMARK  114  A    between atoms: _295  and  _298
REMARK  115  A    between atoms: _298  and  _299
REMARK  116  A    between atoms: _302  and  _304
REMARK  117  A    between atoms: _304  and  _305
REMARK  118  A    between atoms: _304  and  _307
REMARK  119  A    between atoms: _307  and  _308
REMARK  120  A    between atoms: _308  and  _309
REMARK  121  A    between atoms: _312  and  _314
REMARK  122  A    between atoms: _314  and  _315
REMARK  123  A    between atoms: _314  and  _317
REMARK  124  A    between atoms: _317  and  _318
REMARK  125  A    between atoms: _323  and  _325
REMARK  126  A    between atoms: _325  and  _326
REMARK  127  A    between atoms: _328  and  _330
REMARK  128  A    between atoms: _330  and  _331
REMARK  129  A    between atoms: _330  and  _333
REMARK  130  A    between atoms: _336  and  _338
REMARK  131  A    between atoms: _338  and  _339
REMARK  132  A    between atoms: _342  and  _344
REMARK  133  A    between atoms: _344  and  _345
REMARK  134  A    between atoms: _344  and  _347
REMARK  135  A    between atoms: _347  and  _348
REMARK  136  A    between atoms: _353  and  _355
REMARK  137  A    between atoms: _355  and  _356
REMARK  138  A    between atoms: _355  and  _358
REMARK  139  A    between atoms: _358  and  _359
REMARK  140  A    between atoms: _359  and  _360
REMARK  141  A    between atoms: _360  and  _361
REMARK  142  A    between atoms: _361  and  _362
REMARK  143  A    between atoms: _366  and  _368
REMARK  144  A    between atoms: _368  and  _369
REMARK  145  A    between atoms: _368  and  _371
REMARK  146  A    between atoms: _371  and  _372
REMARK  147  A    between atoms: _377  and  _379
REMARK  148  A    between atoms: _379  and  _380
REMARK  149  A    between atoms: _382  and  _384
REMARK  150  A    between atoms: _384  and  _385
REMARK  151  A    between atoms: _384  and  _387
REMARK  152  A    between atoms: _387  and  _388
REMARK  153  A    between atoms: _391  and  _393
REMARK  154  A    between atoms: _393  and  _394
REMARK  155  A    between atoms: _393  and  _396
REMARK  156  A    between atoms: _396  and  _397
REMARK  157  A    between atoms: _397  and  _398
REMARK  158  A    between atoms: _398  and  _399
REMARK  159  A    between atoms: _399  and  _400
REMARK  160  A    between atoms: _404  and  _406
REMARK  161  A    between atoms: _406  and  _407
REMARK  162  A    between atoms: _406  and  _409
REMARK  163  A    between atoms: _409  and  _410
REMARK  164  A    between atoms: _410  and  _411
REMARK  165  A    between atoms: _411  and  _412
REMARK  166  A    between atoms: _421  and  _423
REMARK  167  A    between atoms: _423  and  _424
REMARK  168  A    between atoms: _423  and  _426
REMARK  169  A    between atoms: _426  and  _427
REMARK  170  A    between atoms: _432  and  _433
REMARK  171  A    between atoms: _435  and  _437
REMARK  172  A    between atoms: _437  and  _438
REMARK  173  A    between atoms: _437  and  _440
REMARK  174  A    between atoms: _440  and  _441
REMARK  175  A    between atoms: _441  and  _442
REMARK  176  A    between atoms: _442  and  _443
REMARK  177  A    between atoms: _443  and  _444
REMARK  178  A    between atoms: _448  and  _450
REMARK  179  A    between atoms: _450  and  _451
REMARK  180  A    between atoms: _450  and  _453
REMARK  181  A    between atoms: _453  and  _454
REMARK  182  A    between atoms: _456  and  _458
REMARK  183  A    between atoms: _458  and  _459
REMARK  184  A    between atoms: _458  and  _461
REMARK  185  A    between atoms: _461  and  _462
REMARK  186  A    between atoms: _465  and  _467
REMARK  187  A    between atoms: _467  and  _468
REMARK  188  A    between atoms: _467  and  _470
REMARK  189  A    between atoms: _470  and  _471
REMARK  190  A    between atoms: _471  and  _472
REMARK  191  A    between atoms: _475  and  _477
REMARK  192  A    between atoms: _477  and  _478
REMARK  193  A    between atoms: _481  and  _483
REMARK  194  A    between atoms: _483  and  _484
REMARK  195  A    between atoms: _483  and  _486
REMARK  196  A    between atoms: _486  and  _487
REMARK  197  A    between atoms: _489  and  _491
REMARK  198  A    between atoms: _491  and  _492
REMARK  199  A    between atoms: _494  and  _496
REMARK  200  A    between atoms: _496  and  _497
REMARK  201  A    between atoms: _496  and  _499
REMARK  202  A    between atoms: _499  and  _500
REMARK  203  A    between atoms: _503  and  _505
REMARK  204  A    between atoms: _505  and  _506
REMARK  205  A    between atoms: _508  and  _510
REMARK  206  A    between atoms: _510  and  _511
REMARK  207  A    between atoms: _510  and  _513
REMARK  208  A    between atoms: _513  and  _514
REMARK  209  A    between atoms: _519  and  _521
REMARK  210  A    between atoms: _521  and  _522
REMARK  211  A    between atoms: _521  and  _524
REMARK  212  A    between atoms: _524  and  _525
REMARK  213  A    between atoms: _525  and  _526
REMARK  214  A    between atoms: _533  and  _534
REMARK  215  A    between atoms: _534  and  _550
REMARK  216  A    between atoms: _535  and  _537
REMARK  217  A    between atoms: _537  and  _538
REMARK  218  A    between atoms: _538  and  _539
REMARK  219  A    between atoms: _543  and  _545
REMARK  220  A    between atoms: _545  and  _546
REMARK  221  A    between atoms: _545  and  _553
REMARK  222  A    between atoms: _546  and  _547
REMARK  223  A    between atoms: _547  and  _548
REMARK  224  A    between atoms: _548  and  _549
REMARK  225  A    between atoms: _549  and  _550
REMARK  226  A    between atoms: _555  and  _557
REMARK  227  A    between atoms: _557  and  _558
REMARK  228  A    between atoms: _557  and  _560
REMARK  229  A    between atoms: _560  and  _561
REMARK  230  A    between atoms: _564  and  _566
REMARK  231  A    between atoms: _566  and  _567
REMARK  232  A    between atoms: _569  and  _571
REMARK  233  A    between atoms: _571  and  _572
REMARK  234  A    between atoms: _575  and  _577
REMARK  235  A    between atoms: _577  and  _578
REMARK  236  A    between atoms: _577  and  _580
REMARK  237  A    between atoms: _580  and  _581
REMARK  238  A    between atoms: _586  and  _587
REMARK                            x       y       z     vdW  Elec       q    Type
REMARK                         _______ _______ _______ _____ _____    ______ ____
ROOT
ATOM      1  CB  PHE A   1      29.277  11.463  33.041  0.00  0.00    +0.051 C 
ENDROOT
BRANCH   1   2
ATOM      2  CG  PHE A   1      29.942  11.699  31.712  0.00  0.00    -0.020 A 
ATOM      3  CD2 PHE A   1      31.324  11.850  31.636  0.00  0.00    -0.004 A 
ATOM      4  CE2 PHE A   1      31.952  12.065  30.397  0.00  0.00    -0.000 A 
ATOM      5  CZ  PHE A   1      31.195  12.132  29.240  0.00  0.00    -0.000 A 
ATOM      6  CE1 PHE A   1      29.815  11.987  29.302  0.00  0.00    -0.000 A 
ATOM      7  CD1 PHE A   1      29.197  11.778  30.537  0.00  0.00    -0.004 A 
ENDBRANCH   1   2
BRANCH   1   8
ATOM      8  CA  PHE A   1      27.783  11.106  32.938  0.00  0.00    +0.137 C 
BRANCH   8   9
ATOM      9  N   PHE A   1      26.969  12.306  32.755  0.00  0.00    -0.239 NA
ATOM     10  H   PHE A   1      27.426  13.239  32.805  0.00  0.00    +0.142 HD
ENDBRANCH   8   9
BRANCH   8  11
ATOM     11  C   PHE A   1      27.349  10.274  34.149  0.00  0.00    +0.224 C 
ATOM     12  O   PHE A   1      27.307   9.044  34.070  0.00  0.00    -0.287 OA
ENDBRANCH   8  11
ENDBRANCH   1   8
TORSDOF 4
REMARK  Name = ../refined-set-2016/3l7b/3l7b_pocket.pdb
REMARK  238 active torsions:
REMARK  status: ('A' for Active; 'I' for Inactive)
REMARK    1  A    between atoms: _1  and  _3
REMARK    2  A    between atoms: _3  and  _4
REMARK    3  A    between atoms: _3  and  _6
REMARK    4  A    between atoms: _6  and  _7
REMARK    5  A    between atoms: _12  and  _13
REMARK    6  A    between atoms: _15  and  _17
REMARK    7  A    between atoms: _17  and  _18
REMARK    8  A    between atoms: _17  and  _20
REMARK    9  A    between atoms: _20  and  _21
REMARK   10  A    between atoms: _21  and  _22
REMARK   11  A    between atoms: _25  and  _27
REMARK   12  A    between atoms: _27  and  _28
REMARK   13  A    between atoms: _27  and  _30
REMARK   14  A    between atoms: _30  and  _31
REMARK   15  A    between atoms: _36  and  _37
REMARK   16  A    between atoms: _39  and  _41
REMARK   17  A    between atoms: _41  and  _42
REMARK   18  A    between atoms: _41  and  _44
REMARK   19  A    between atoms: _44  and  _45
REMARK   20  A    between atoms: _50  and  _52
REMARK   21  A    between atoms: _52  and  _53
REMARK   22  A    between atoms: _55  and  _57
REMARK   23  A    between atoms: _57  and  _58
REMARK   24  A    between atoms: _60  and  _62
REMARK   25  A    between atoms: _62  and  _63
REMARK   26  A    between atoms: _62  and  _65
REMARK   27  A    between atoms: _65  and  _66
REMARK   28  A    between atoms: _69  and  _71
REMARK   29  A    between atoms: _71  and  _72
REMARK   30  A    between atoms: _74  and  _76
REMARK   31  A    between atoms: _76  and  _77
REMARK   32  A    between atoms: _76  and  _79
REMARK   33  A    between atoms: _80  and  _81
REMARK   34  A    between atoms: _81  and  _82
REMARK   35  A    between atoms: _91  and  _93
REMARK   36  A    between atoms: _93  and  _94
REMARK   37  A    between atoms: _93  and  _96
REMARK   38  A    between atoms: _96  and  _97
REMARK   39  A    between atoms: _100  and  _102
REMARK   40  A    between atoms: _102  and  _103
REMARK   41  A    between atoms: _106  and  _108
REMARK   42  A    between atoms: _108  and  _109
REMARK   43  A    between atoms: _108  and  _111
REMARK   44  A    between atoms: _111  and  _112
REMARK   45  A    between atoms: _118  and  _120
REMARK   46  A    between atoms: _120  and  _121
REMARK   47  A    between atoms: _120  and  _123
REMARK   48  A    between atoms: _123  and  _124
REMARK   49  A    between atoms: _129  and  _131
REMARK   50  A    between atoms: _131  and  _132
REMARK   51  A    between atoms: _131  and  _134
REMARK   52  A    between atoms: _134  and  _135
REMARK   53  A    between atoms: _138  and  _140
REMARK   54  A    between atoms: _140  and  _141
REMARK   55  A    between atoms: _140  and  _143
REMARK   56  A    between atoms: _143  and  _144
REMARK   57  A    between atoms: _149  and  _151
REMARK   58  A    between atoms: _151  and  _152
REMARK   59  A    between atoms: _151  and  _154
REMARK   60  A    between atoms: _154  and  _155
REMARK   61  A    between atoms: _161  and  _163
REMARK   62  A    between atoms: _163  and  _164
REMARK   63  A    between atoms: _163  and  _166
REMARK   64  A    between atoms: _166  and  _167
REMARK   65  A    between atoms: _173  and  _175
REMARK   66  A    between atoms: _175  and  _176
REMARK   67  A    between atoms: _175  and  _178
REMARK   68  A    between atoms: _178  and  _179
REMARK   69  A    between atoms: _179  and  _180
REMARK   70  A    between atoms: _180  and  _181
REMARK   71  A    between atoms: _190  and  _192
REMARK   72  A    between atoms: _192  and  _193
REMARK   73  A    between atoms: _192  and  _195
REMARK   74  A    between atoms: _195  and  _196
REMARK   75  A    between atoms: _201  and  _203
REMARK   76  A    between atoms: _203  and  _204
REMARK   77  A    between atoms: _203  and  _206
REMARK   78  A    between atoms: _206  and  _207
REMARK   79  A    between atoms: _210  and  _212
REMARK   80  A    between atoms: _212  and  _213
REMARK   81  A    between atoms: _212  and  _215
REMARK   82  A    between atoms: _215  and  _216
REMARK   83  A    between atoms: _219  and  _221
REMARK   84  A    between atoms: _221  and  _222
REMARK   85  A    between atoms: _221  and  _224
REMARK   86  A    between atoms: _224  and  _225
REMARK   87  A    between atoms: _230  and  _232
REMARK   88  A    between atoms: _232  and  _233
REMARK   89  A    between atoms: _232  and  _235
REMARK   90  A    between atoms: _235  and  _236
REMARK   91  A    between atoms: _239  and  _241
REMARK   92  A    between atoms: _241  and  _242
REMARK   93  A    between atoms: _241  and  _244
REMARK   94  A    between atoms: _244  and  _245
REMARK   95  A    between atoms: _250  and  _252
REMARK   96  A    between atoms: _252  and  _253
REMARK   97  A    between atoms: _252  and  _255
REMARK   98  A    between atoms: _255  and  _256
REMARK   99  A    between atoms: _261  and  _263
REMARK  100  A    between atoms: _263  and  _264
REMARK  101  A    between atoms: _263  and  _266
REMARK  102  A    between atoms: _266  and  _267
REMARK  103  A    between atoms: _270  and  _272
REMARK  104  A    between atoms: _272  and  _273
REMARK  105  A    between atoms: _272  and  _275
REMARK  106  A    between atoms: _278  and  _280
REMARK  107  A    between atoms: _280  and  _281
REMARK  108  A    between atoms: _280  and  _283
REMARK  109  A    between atoms: _283  and  _284
REMARK  110  A    between atoms: _287  and  _289
REMARK  111  A    between atoms: _289  and  _290
REMARK  112  A    between atoms: _293  and  _295
REMARK  113  A    between atoms: _295  and  _296
REMARK  114  A    between atoms: _295  and  _298
REMARK  115  A    between atoms: _298  and  _299
REMARK  116  A    between atoms: _302  and  _304
REMARK  117  A    between atoms: _304  and  _305
REMARK  118  A    between atoms: _304  and  _307
REMARK  119  A    between atoms: _307  and  _308
REMARK  120  A    between atoms: _308  and  _309
REMARK  121  A    between atoms: _312  and  _314
REMARK  122  A    between atoms: _314  and  _315
REMARK  123  A    between atoms: _314  and  _317
REMARK  124  A    between atoms: _317  and  _318
REMARK  125  A    between atoms: _323  and  _325
REMARK  126  A    between atoms: _325  and  _326
REMARK  127  A    between atoms: _328  and  _330
REMARK  128  A    between atoms: _330  and  _331
REMARK  129  A    between atoms: _330  and  _333
REMARK  130  A    between atoms: _336  and  _338
REMARK  131  A    between atoms: _338  and  _339
REMARK  132  A    between atoms: _342  and  _344
REMARK  133  A    between atoms: _344  and  _345
REMARK  134  A    between atoms: _344  and  _347
REMARK  135  A    between atoms: _347  and  _348
REMARK  136  A    between atoms: _353  and  _355
REMARK  137  A    between atoms: _355  and  _356
REMARK  138  A    between atoms: _355  and  _358
REMARK  139  A    between atoms: _358  and  _359
REMARK  140  A    between atoms: _359  and  _360
REMARK  141  A    between atoms: _360  and  _361
REMARK  142  A    between atoms: _361  and  _362
REMARK  143  A    between atoms: _366  and  _368
REMARK  144  A    between atoms: _368  and  _369
REMARK  145  A    between atoms: _368  and  _371
REMARK  146  A    between atoms: _371  and  _372
REMARK  147  A    between atoms: _377  and  _379
REMARK  148  A    between atoms: _379  and  _380
REMARK  149  A    between atoms: _382  and  _384
REMARK  150  A    between atoms: _384  and  _385
REMARK  151  A    between atoms: _384  and  _387
REMARK  152  A    between atoms: _387  and  _388
REMARK  153  A    between atoms: _391  and  _393
REMARK  154  A    between atoms: _393  and  _394
REMARK  155  A    between atoms: _393  and  _396
REMARK  156  A    between atoms: _396  and  _397
REMARK  157  A    between atoms: _397  and  _398
REMARK  158  A    between atoms: _398  and  _399
REMARK  159  A    between atoms: _399  and  _400
REMARK  160  A    between atoms: _404  and  _406
REMARK  161  A    between atoms: _406  and  _407
REMARK  162  A    between atoms: _406  and  _409
REMARK  163  A    between atoms: _409  and  _410
REMARK  164  A    between atoms: _410  and  _411
REMARK  165  A    between atoms: _411  and  _412
REMARK  166  A    between atoms: _421  and  _423
REMARK  167  A    between atoms: _423  and  _424
REMARK  168  A    between atoms: _423  and  _426
REMARK  169  A    between atoms: _426  and  _427
REMARK  170  A    between atoms: _432  and  _433
REMARK  171  A    between atoms: _435  and  _437
REMARK  172  A    between atoms: _437  and  _438
REMARK  173  A    between atoms: _437  and  _440
REMARK  174  A    between atoms: _440  and  _441
REMARK  175  A    between atoms: _441  and  _442
REMARK  176  A    between atoms: _442  and  _443
REMARK  177  A    between atoms: _443  and  _444
REMARK  178  A    between atoms: _448  and  _450
REMARK  179  A    between atoms: _450  and  _451
REMARK  180  A    between atoms: _450  and  _453
REMARK  181  A    between atoms: _453  and  _454
REMARK  182  A    between atoms: _456  and  _458
REMARK  183  A    between atoms: _458  and  _459
REMARK  184  A    between atoms: _458  and  _461
REMARK  185  A    between atoms: _461  and  _462
REMARK  186  A    between atoms: _465  and  _467
REMARK  187  A    between atoms: _467  and  _468
REMARK  188  A    between atoms: _467  and  _470
REMARK  189  A    between atoms: _470  and  _471
REMARK  190  A    between atoms: _471  and  _472
REMARK  191  A    between atoms: _475  and  _477
REMARK  192  A    between atoms: _477  and  _478
REMARK  193  A    between atoms: _481  and  _483
REMARK  194  A    between atoms: _483  and  _484
REMARK  195  A    between atoms: _483  and  _486
REMARK  196  A    between atoms: _486  and  _487
REMARK  197  A    between atoms: _489  and  _491
REMARK  198  A    between atoms: _491  and  _492
REMARK  199  A    between atoms: _494  and  _496
REMARK  200  A    between atoms: _496  and  _497
REMARK  201  A    between atoms: _496  and  _499
REMARK  202  A    between atoms: _499  and  _500
REMARK  203  A    between atoms: _503  and  _505
REMARK  204  A    between atoms: _505  and  _506
REMARK  205  A    between atoms: _508  and  _510
REMARK  206  A    between atoms: _510  and  _511
REMARK  207  A    between atoms: _510  and  _513
REMARK  208  A    between atoms: _513  and  _514
REMARK  209  A    between atoms: _519  and  _521
REMARK  210  A    between atoms: _521  and  _522
REMARK  211  A    between atoms: _521  and  _524
REMARK  212  A    between atoms: _524  and  _525
REMARK  213  A    between atoms: _525  and  _526
REMARK  214  A    between atoms: _533  and  _534
REMARK  215  A    between atoms: _534  and  _550
REMARK  216  A    between atoms: _535  and  _537
REMARK  217  A    between atoms: _537  and  _538
REMARK  218  A    between atoms: _538  and  _539
REMARK  219  A    between atoms: _543  and  _545
REMARK  220  A    between atoms: _545  and  _546
REMARK  221  A    between atoms: _545  and  _553
REMARK  222  A    between atoms: _546  and  _547
REMARK  223  A    between atoms: _547  and  _548
REMARK  224  A    between atoms: _548  and  _549
REMARK  225  A    between atoms: _549  and  _550
REMARK  226  A    between atoms: _555  and  _557
REMARK  227  A    between atoms: _557  and  _558
REMARK  228  A    between atoms: _557  and  _560
REMARK  229  A    between atoms: _560  and  _561
REMARK  230  A    between atoms: _564  and  _566
REMARK  231  A    between atoms: _566  and  _567
REMARK  232  A    between atoms: _569  and  _571
REMARK  233  A    between atoms: _571  and  _572
REMARK  234  A    between atoms: _575  and  _577
REMARK  235  A    between atoms: _577  and  _578
REMARK  236  A    between atoms: _577  and  _580
REMARK  237  A    between atoms: _580  and  _581
REMARK  238  A    between atoms: _586  and  _587
REMARK                            x       y       z     vdW  Elec       q    Type
REMARK                         _______ _______ _______ _____ _____    ______ ____
ROOT
ATOM      1  CA  ASN A   3      37.065  28.508  30.250  0.00  0.00    +0.158 C 
ENDROOT
BRANCH   1   2
ATOM      2  C   ASN A   3      38.101  29.617  30.501  0.00  0.00    +0.241 C 
ATOM      3  N   PHE A   4      38.542  29.757  31.752  0.00  0.00    -0.297 N 
ATOM      4  H   PHE A   4      38.165  29.131  32.492  0.00  0.00    +0.150 HD
ATOM      5  O   ASN A   3      38.486  30.338  29.574  0.00  0.00    -0.273 OA
BRANCH   3   6
ATOM      6  CA  PHE A   4      39.544  30.768  32.118  0.00  0.00    +0.153 C 
BRANCH   6   7
ATOM      7  C   PHE A   4      40.218  30.414  33.448  0.00  0.00    +0.241 C 
ATOM      8  O   PHE A   4      39.537  29.985  34.385  0.00  0.00    -0.273 OA
ATOM      9  N   PHE A   5      41.542  30.603  33.524  0.00  0.00    -0.298 N 
ATOM     10  H   PHE A   5      42.034  31.022  32.709  0.00  0.00    +0.150 HD
BRANCH   9  11
ATOM     11  CA  PHE A   5      42.328  30.241  34.714  0.00  0.00    +0.141 C 
BRANCH  11  12
ATOM     12  C   PHE A   5      42.710  31.456  35.562  0.00  0.00    +0.227 C 
ATOM     13  O   PHE A   5      43.329  32.402  35.070  0.00  0.00    -0.286 OA
ENDBRANCH  11  12
BRANCH  11  14
ATOM     14  CB  PHE A   5      43.583  29.434  34.324  0.00  0.00    +0.054 C 
BRANCH  14  15
ATOM     15  CG  PHE A   5      44.575  29.230  35.459  0.00  0.00    -0.020 A 
ATOM     16  CD2 PHE A   5      44.246  28.464  36.571  0.00  0.00    -0.004 A 
ATOM     17  CE2 PHE A   5      45.170  28.276  37.609  0.00  0.00    -0.000 A 
ATOM     18  CZ  PHE A   5      46.420  28.855  37.536  0.00  0.00    -0.000 A 
ATOM     19  CE1 PHE A   5      46.763  29.625  36.434  0.00  0.00    -0.000 A 
ATOM     20  CD1 PHE A   5      45.842  29.809  35.404  0.00  0.00    -0.004 A 
ENDBRANCH  14  15
ENDBRANCH  11  14
ENDBRANCH   9  11
ENDBRANCH   6   7
BRANCH   6  21
ATOM     21  CB  PHE A   4      38.907  32.161  32.193  0.00  0.00    +0.055 C 
BRANCH  21  22
ATOM     22  CG  PHE A   4      39.885  33.262  32.504  0.00  0.00    -0.020 A 
ATOM     23  CD2 PHE A   4      39.897  33.866  33.759  0.00  0.00    -0.004 A 
ATOM     24  CE2 PHE A   4      40.811  34.894  34.057  0.00  0.00    -0.000 A 
ATOM     25  CZ  PHE A   4      41.717  35.314  33.093  0.00  0.00    -0.000 A 
ATOM     26  CE1 PHE A   4      41.711  34.717  31.829  0.00  0.00    -0.000 A 
ATOM     27  CD1 PHE A   4      40.795  33.695  31.544  0.00  0.00    -0.004 A 
ENDBRANCH  21  22
ENDBRANCH   6  21
ENDBRANCH   3   6
ENDBRANCH   1   2
BRANCH   1  29
ATOM     28  C   ASP A   2      35.193  29.564  31.424  0.00  0.00    +0.241 C 
ATOM     29  N   ASN A   3      35.965  28.494  31.231  0.00  0.00    -0.297 N 
ATOM     30  H   ASN A   3      35.787  27.632  31.784  0.00  0.00    +0.150 HD
ATOM     31  O   ASP A   2      35.418  30.648  30.885  0.00  0.00    -0.273 OA
BRANCH  28  32
ATOM     32  CA  ASP A   2      34.013  29.417  32.378  0.00  0.00    +0.160 C 
BRANCH  32  35
ATOM     33  C   ASN A   1      34.689  30.123  34.607  0.00  0.00    +0.239 C 
ATOM     34  O   ASN A   1      34.915  28.961  34.961  0.00  0.00    -0.274 OA
ATOM     35  N   ASP A   2      34.207  30.427  33.409  0.00  0.00    -0.297 N 
ATOM     36  H   ASP A   2      33.960  31.416  33.200  0.00  0.00    +0.150 HD
BRANCH  33  37
ATOM     37  CA  ASN A   1      34.960  31.298  35.550  0.00  0.00    +0.154 C 
BRANCH  37  38
ATOM     38  N   ASN A   1      34.310  31.184  36.868  0.00  0.00    -0.238 NA
ATOM     39  H   ASN A   1      34.794  30.667  37.630  0.00  0.00    +0.142 HD
ENDBRANCH  37  38
BRANCH  37  40
ATOM     40  CB  ASN A   1      36.469  31.469  35.722  0.00  0.00    +0.111 C 
BRANCH  40  41
ATOM     41  CG  ASN A   1      36.812  32.584  36.678  0.00  0.00    +0.221 C 
ATOM     42  ND2 ASN A   1      37.647  32.281  37.672  0.00  0.00    -0.329 N 
ATOM     43 HD21 ASN A   1      37.905  33.004  38.373  0.00  0.00    +0.145 HD
ATOM     44 HD22 ASN A   1      38.041  31.321  37.746  0.00  0.00    +0.145 HD
ATOM     45  OD1 ASN A   1      36.315  33.708  36.542  0.00  0.00    -0.275 OA
ENDBRANCH  40  41
ENDBRANCH  37  40
ENDBRANCH  33  37
ENDBRANCH  32  35
BRANCH  32  46
ATOM     46  CB  ASP A   2      32.689  29.673  31.646  0.00  0.00    +0.143 C 
BRANCH  46  47
ATOM     47  CG  ASP A   2      32.281  28.524  30.717  0.00  0.00    +0.367 C 
ATOM     48  OD2 ASP A   2      31.743  27.499  31.211  0.00  0.00    -0.246 OA
ATOM     49  OD1 ASP A   2      32.464  28.662  29.476  0.00  0.00    -0.246 OA
ENDBRANCH  46  47
ENDBRANCH  32  46
ENDBRANCH  28  32
ENDBRANCH   1  29
BRANCH   1  50
ATOM     50  CB  ASN A   3      36.505  28.641  28.822  0.00  0.00    +0.114 C 
BRANCH  50  51
ATOM     51  CG  ASN A   3      36.114  27.309  28.217  0.00  0.00    +0.222 C 
ATOM     52  ND2 ASN A   3      34.845  26.940  28.365  0.00  0.00    -0.329 N 
ATOM     53 HD21 ASN A   3      34.183  27.551  28.885  0.00  0.00    +0.145 HD
ATOM     54 HD22 ASN A   3      34.514  26.041  27.960  0.00  0.00    +0.145 HD
ATOM     55  OD1 ASN A   3      36.940  26.626  27.611  0.00  0.00    -0.275 OA
ENDBRANCH  50  51
ENDBRANCH   1  50
TORSDOF 20
REMARK  Name = ../refined-set-2016/3l7b/3l7b_pocket.pdb
REMARK  238 active torsions:
REMARK  status: ('A' for Active; 'I' for Inactive)
REMARK    1  A    between atoms: _1  and  _3
REMARK    2  A    between atoms: _3  and  _4
REMARK    3  A    between atoms: _3  and  _6
REMARK    4  A    between atoms: _6  and  _7
REMARK    5  A    between atoms: _12  and  _13
REMARK    6  A    between atoms: _15  and  _17
REMARK    7  A    between atoms: _17  and  _18
REMARK    8  A    between atoms: _17  and  _20
REMARK    9  A    between atoms: _20  and  _21
REMARK   10  A    between atoms: _21  and  _22
REMARK   11  A    between atoms: _25  and  _27
REMARK   12  A    between atoms: _27  and  _28
REMARK   13  A    between atoms: _27  and  _30
REMARK   14  A    between atoms: _30  and  _31
REMARK   15  A    between atoms: _36  and  _37
REMARK   16  A    between atoms: _39  and  _41
REMARK   17  A    between atoms: _41  and  _42
REMARK   18  A    between atoms: _41  and  _44
REMARK   19  A    between atoms: _44  and  _45
REMARK   20  A    between atoms: _50  and  _52
REMARK   21  A    between atoms: _52  and  _53
REMARK   22  A    between atoms: _55  and  _57
REMARK   23  A    between atoms: _57  and  _58
REMARK   24  A    between atoms: _60  and  _62
REMARK   25  A    between atoms: _62  and  _63
REMARK   26  A    between atoms: _62  and  _65
REMARK   27  A    between atoms: _65  and  _66
REMARK   28  A    between atoms: _69  and  _71
REMARK   29  A    between atoms: _71  and  _72
REMARK   30  A    between atoms: _74  and  _76
REMARK   31  A    between atoms: _76  and  _77
REMARK   32  A    between atoms: _76  and  _79
REMARK   33  A    between atoms: _80  and  _81
REMARK   34  A    between atoms: _81  and  _82
REMARK   35  A    between atoms: _91  and  _93
REMARK   36  A    between atoms: _93  and  _94
REMARK   37  A    between atoms: _93  and  _96
REMARK   38  A    between atoms: _96  and  _97
REMARK   39  A    between atoms: _100  and  _102
REMARK   40  A    between atoms: _102  and  _103
REMARK   41  A    between atoms: _106  and  _108
REMARK   42  A    between atoms: _108  and  _109
REMARK   43  A    between atoms: _108  and  _111
REMARK   44  A    between atoms: _111  and  _112
REMARK   45  A    between atoms: _118  and  _120
REMARK   46  A    between atoms: _120  and  _121
REMARK   47  A    between atoms: _120  and  _123
REMARK   48  A    between atoms: _123  and  _124
REMARK   49  A    between atoms: _129  and  _131
REMARK   50  A    between atoms: _131  and  _132
REMARK   51  A    between atoms: _131  and  _134
REMARK   52  A    between atoms: _134  and  _135
REMARK   53  A    between atoms: _138  and  _140
REMARK   54  A    between atoms: _140  and  _141
REMARK   55  A    between atoms: _140  and  _143
REMARK   56  A    between atoms: _143  and  _144
REMARK   57  A    between atoms: _149  and  _151
REMARK   58  A    between atoms: _151  and  _152
REMARK   59  A    between atoms: _151  and  _154
REMARK   60  A    between atoms: _154  and  _155
REMARK   61  A    between atoms: _161  and  _163
REMARK   62  A    between atoms: _163  and  _164
REMARK   63  A    between atoms: _163  and  _166
REMARK   64  A    between atoms: _166  and  _167
REMARK   65  A    between atoms: _173  and  _175
REMARK   66  A    between atoms: _175  and  _176
REMARK   67  A    between atoms: _175  and  _178
REMARK   68  A    between atoms: _178  and  _179
REMARK   69  A    between atoms: _179  and  _180
REMARK   70  A    between atoms: _180  and  _181
REMARK   71  A    between atoms: _190  and  _192
REMARK   72  A    between atoms: _192  and  _193
REMARK   73  A    between atoms: _192  and  _195
REMARK   74  A    between atoms: _195  and  _196
REMARK   75  A    between atoms: _201  and  _203
REMARK   76  A    between atoms: _203  and  _204
REMARK   77  A    between atoms: _203  and  _206
REMARK   78  A    between atoms: _206  and  _207
REMARK   79  A    between atoms: _210  and  _212
REMARK   80  A    between atoms: _212  and  _213
REMARK   81  A    between atoms: _212  and  _215
REMARK   82  A    between atoms: _215  and  _216
REMARK   83  A    between atoms: _219  and  _221
REMARK   84  A    between atoms: _221  and  _222
REMARK   85  A    between atoms: _221  and  _224
REMARK   86  A    between atoms: _224  and  _225
REMARK   87  A    between atoms: _230  and  _232
REMARK   88  A    between atoms: _232  and  _233
REMARK   89  A    between atoms: _232  and  _235
REMARK   90  A    between atoms: _235  and  _236
REMARK   91  A    between atoms: _239  and  _241
REMARK   92  A    between atoms: _241  and  _242
REMARK   93  A    between atoms: _241  and  _244
REMARK   94  A    between atoms: _244  and  _245
REMARK   95  A    between atoms: _250  and  _252
REMARK   96  A    between atoms: _252  and  _253
REMARK   97  A    between atoms: _252  and  _255
REMARK   98  A    between atoms: _255  and  _256
REMARK   99  A    between atoms: _261  and  _263
REMARK  100  A    between atoms: _263  and  _264
REMARK  101  A    between atoms: _263  and  _266
REMARK  102  A    between atoms: _266  and  _267
REMARK  103  A    between atoms: _270  and  _272
REMARK  104  A    between atoms: _272  and  _273
REMARK  105  A    between atoms: _272  and  _275
REMARK  106  A    between atoms: _278  and  _280
REMARK  107  A    between atoms: _280  and  _281
REMARK  108  A    between atoms: _280  and  _283
REMARK  109  A    between atoms: _283  and  _284
REMARK  110  A    between atoms: _287  and  _289
REMARK  111  A    between atoms: _289  and  _290
REMARK  112  A    between atoms: _293  and  _295
REMARK  113  A    between atoms: _295  and  _296
REMARK  114  A    between atoms: _295  and  _298
REMARK  115  A    between atoms: _298  and  _299
REMARK  116  A    between atoms: _302  and  _304
REMARK  117  A    between atoms: _304  and  _305
REMARK  118  A    between atoms: _304  and  _307
REMARK  119  A    between atoms: _307  and  _308
REMARK  120  A    between atoms: _308  and  _309
REMARK  121  A    between atoms: _312  and  _314
REMARK  122  A    between atoms: _314  and  _315
REMARK  123  A    between atoms: _314  and  _317
REMARK  124  A    between atoms: _317  and  _318
REMARK  125  A    between atoms: _323  and  _325
REMARK  126  A    between atoms: _325  and  _326
REMARK  127  A    between atoms: _328  and  _330
REMARK  128  A    between atoms: _330  and  _331
REMARK  129  A    between atoms: _330  and  _333
REMARK  130  A    between atoms: _336  and  _338
REMARK  131  A    between atoms: _338  and  _339
REMARK  132  A    between atoms: _342  and  _344
REMARK  133  A    between atoms: _344  and  _345
REMARK  134  A    between atoms: _344  and  _347
REMARK  135  A    between atoms: _347  and  _348
REMARK  136  A    between atoms: _353  and  _355
REMARK  137  A    between atoms: _355  and  _356
REMARK  138  A    between atoms: _355  and  _358
REMARK  139  A    between atoms: _358  and  _359
REMARK  140  A    between atoms: _359  and  _360
REMARK  141  A    between atoms: _360  and  _361
REMARK  142  A    between atoms: _361  and  _362
REMARK  143  A    between atoms: _366  and  _368
REMARK  144  A    between atoms: _368  and  _369
REMARK  145  A    between atoms: _368  and  _371
REMARK  146  A    between atoms: _371  and  _372
REMARK  147  A    between atoms: _377  and  _379
REMARK  148  A    between atoms: _379  and  _380
REMARK  149  A    between atoms: _382  and  _384
REMARK  150  A    between atoms: _384  and  _385
REMARK  151  A    between atoms: _384  and  _387
REMARK  152  A    between atoms: _387  and  _388
REMARK  153  A    between atoms: _391  and  _393
REMARK  154  A    between atoms: _393  and  _394
REMARK  155  A    between atoms: _393  and  _396
REMARK  156  A    between atoms: _396  and  _397
REMARK  157  A    between atoms: _397  and  _398
REMARK  158  A    between atoms: _398  and  _399
REMARK  159  A    between atoms: _399  and  _400
REMARK  160  A    between atoms: _404  and  _406
REMARK  161  A    between atoms: _406  and  _407
REMARK  162  A    between atoms: _406  and  _409
REMARK  163  A    between atoms: _409  and  _410
REMARK  164  A    between atoms: _410  and  _411
REMARK  165  A    between atoms: _411  and  _412
REMARK  166  A    between atoms: _421  and  _423
REMARK  167  A    between atoms: _423  and  _424
REMARK  168  A    between atoms: _423  and  _426
REMARK  169  A    between atoms: _426  and  _427
REMARK  170  A    between atoms: _432  and  _433
REMARK  171  A    between atoms: _435  and  _437
REMARK  172  A    between atoms: _437  and  _438
REMARK  173  A    between atoms: _437  and  _440
REMARK  174  A    between atoms: _440  and  _441
REMARK  175  A    between atoms: _441  and  _442
REMARK  176  A    between atoms: _442  and  _443
REMARK  177  A    between atoms: _443  and  _444
REMARK  178  A    between atoms: _448  and  _450
REMARK  179  A    between atoms: _450  and  _451
REMARK  180  A    between atoms: _450  and  _453
REMARK  181  A    between atoms: _453  and  _454
REMARK  182  A    between atoms: _456  and  _458
REMARK  183  A    between atoms: _458  and  _459
REMARK  184  A    between atoms: _458  and  _461
REMARK  185  A    between atoms: _461  and  _462
REMARK  186  A    between atoms: _465  and  _467
REMARK  187  A    between atoms: _467  and  _468
REMARK  188  A    between atoms: _467  and  _470
REMARK  189  A    between atoms: _470  and  _471
REMARK  190  A    between atoms: _471  and  _472
REMARK  191  A    between atoms: _475  and  _477
REMARK  192  A    between atoms: _477  and  _478
REMARK  193  A    between atoms: _481  and  _483
REMARK  194  A    between atoms: _483  and  _484
REMARK  195  A    between atoms: _483  and  _486
REMARK  196  A    between atoms: _486  and  _487
REMARK  197  A    between atoms: _489  and  _491
REMARK  198  A    between atoms: _491  and  _492
REMARK  199  A    between atoms: _494  and  _496
REMARK  200  A    between atoms: _496  and  _497
REMARK  201  A    between atoms: _496  and  _499
REMARK  202  A    between atoms: _499  and  _500
REMARK  203  A    between atoms: _503  and  _505
REMARK  204  A    between atoms: _505  and  _506
REMARK  205  A    between atoms: _508  and  _510
REMARK  206  A    between atoms: _510  and  _511
REMARK  207  A    between atoms: _510  and  _513
REMARK  208  A    between atoms: _513  and  _514
REMARK  209  A    between atoms: _519  and  _521
REMARK  210  A    between atoms: _521  and  _522
REMARK  211  A    between atoms: _521  and  _524
REMARK  212  A    between atoms: _524  and  _525
REMARK  213  A    between atoms: _525  and  _526
REMARK  214  A    between atoms: _533  and  _534
REMARK  215  A    between atoms: _534  and  _550
REMARK  216  A    between atoms: _535  and  _537
REMARK  217  A    between atoms: _537  and  _538
REMARK  218  A    between atoms: _538  and  _539
REMARK  219  A    between atoms: _543  and  _545
REMARK  220  A    between atoms: _545  and  _546
REMARK  221  A    between atoms: _545  and  _553
REMARK  222  A    between atoms: _546  and  _547
REMARK  223  A    between atoms: _547  and  _548
REMARK  224  A    between atoms: _548  and  _549
REMARK  225  A    between atoms: _549  and  _550
REMARK  226  A    between atoms: _555  and  _557
REMARK  227  A    between atoms: _557  and  _558
REMARK  228  A    between atoms: _557  and  _560
REMARK  229  A    between atoms: _560  and  _561
REMARK  230  A    between atoms: _564  and  _566
REMARK  231  A    between atoms: _566  and  _567
REMARK  232  A    between atoms: _569  and  _571
REMARK  233  A    between atoms: _571  and  _572
REMARK  234  A    between atoms: _575  and  _577
REMARK  235  A    between atoms: _577  and  _578
REMARK  236  A    between atoms: _577  and  _580
REMARK  237  A    between atoms: _580  and  _581
REMARK  238  A    between atoms: _586  and  _587
REMARK                            x       y       z     vdW  Elec       q    Type
REMARK                         _______ _______ _______ _____ _____    ______ ____
ROOT
ATOM      1  NE  ARG A   1      39.683  25.937  40.495  0.00  0.00    -0.265 N 
ATOM      2  HE  ARG A   1      40.573  25.677  40.025  0.00  0.00    +0.259 HD
ATOM      3  CZ  ARG A   1      38.554  25.547  39.924  0.00  0.00    +0.342 C 
ATOM      4  NH2 ARG A   1      37.378  25.833  40.480  0.00  0.00    -0.292 N 
ATOM      5 HH21 ARG A   1      37.340  26.368  41.371  0.00  0.00    +0.255 HD
ATOM      6 HH22 ARG A   1      36.497  25.522  40.023  0.00  0.00    +0.255 HD
ATOM      7  NH1 ARG A   1      38.609  24.869  38.782  0.00  0.00    -0.292 N 
ATOM      8 HH11 ARG A   1      39.530  24.652  38.350  0.00  0.00    +0.255 HD
ATOM      9 HH12 ARG A   1      37.731  24.555  38.321  0.00  0.00    +0.255 HD
ENDROOT
BRANCH   1  10
ATOM     10  CD  ARG A   1      39.775  26.705  41.736  0.00  0.00    +0.174 C 
BRANCH  10  11
ATOM     11  CG  ARG A   1      41.128  27.408  41.801  0.00  0.00    +0.045 C 
BRANCH  11  12
ATOM     12  CB  ARG A   1      41.245  28.375  42.988  0.00  0.00    +0.029 C 
BRANCH  12  13
ATOM     13  CA  ARG A   1      41.180  27.733  44.372  0.00  0.00    +0.133 C 
BRANCH  13  14
ATOM     14  N   ARG A   1      41.489  28.728  45.405  0.00  0.00    -0.239 NA
ATOM     15  H   ARG A   1      41.816  29.673  45.118  0.00  0.00    +0.142 HD
ENDBRANCH  13  14
BRANCH  13  16
ATOM     16  C   ARG A   1      42.106  26.516  44.457  0.00  0.00    +0.224 C 
ATOM     17  O   ARG A   1      41.673  25.378  44.302  0.00  0.00    -0.287 OA
ENDBRANCH  13  16
ENDBRANCH  12  13
ENDBRANCH  11  12
ENDBRANCH  10  11
ENDBRANCH   1  10
TORSDOF 6
REMARK  Name = ../refined-set-2016/3l7b/3l7b_pocket.pdb
REMARK  238 active torsions:
REMARK  status: ('A' for Active; 'I' for Inactive)
REMARK    1  A    between atoms: _1  and  _3
REMARK    2  A    between atoms: _3  and  _4
REMARK    3  A    between atoms: _3  and  _6
REMARK    4  A    between atoms: _6  and  _7
REMARK    5  A    between atoms: _12  and  _13
REMARK    6  A    between atoms: _15  and  _17
REMARK    7  A    between atoms: _17  and  _18
REMARK    8  A    between atoms: _17  and  _20
REMARK    9  A    between atoms: _20  and  _21
REMARK   10  A    between atoms: _21  and  _22
REMARK   11  A    between atoms: _25  and  _27
REMARK   12  A    between atoms: _27  and  _28
REMARK   13  A    between atoms: _27  and  _30
REMARK   14  A    between atoms: _30  and  _31
REMARK   15  A    between atoms: _36  and  _37
REMARK   16  A    between atoms: _39  and  _41
REMARK   17  A    between atoms: _41  and  _42
REMARK   18  A    between atoms: _41  and  _44
REMARK   19  A    between atoms: _44  and  _45
REMARK   20  A    between atoms: _50  and  _52
REMARK   21  A    between atoms: _52  and  _53
REMARK   22  A    between atoms: _55  and  _57
REMARK   23  A    between atoms: _57  and  _58
REMARK   24  A    between atoms: _60  and  _62
REMARK   25  A    between atoms: _62  and  _63
REMARK   26  A    between atoms: _62  and  _65
REMARK   27  A    between atoms: _65  and  _66
REMARK   28  A    between atoms: _69  and  _71
REMARK   29  A    between atoms: _71  and  _72
REMARK   30  A    between atoms: _74  and  _76
REMARK   31  A    between atoms: _76  and  _77
REMARK   32  A    between atoms: _76  and  _79
REMARK   33  A    between atoms: _80  and  _81
REMARK   34  A    between atoms: _81  and  _82
REMARK   35  A    between atoms: _91  and  _93
REMARK   36  A    between atoms: _93  and  _94
REMARK   37  A    between atoms: _93  and  _96
REMARK   38  A    between atoms: _96  and  _97
REMARK   39  A    between atoms: _100  and  _102
REMARK   40  A    between atoms: _102  and  _103
REMARK   41  A    between atoms: _106  and  _108
REMARK   42  A    between atoms: _108  and  _109
REMARK   43  A    between atoms: _108  and  _111
REMARK   44  A    between atoms: _111  and  _112
REMARK   45  A    between atoms: _118  and  _120
REMARK   46  A    between atoms: _120  and  _121
REMARK   47  A    between atoms: _120  and  _123
REMARK   48  A    between atoms: _123  and  _124
REMARK   49  A    between atoms: _129  and  _131
REMARK   50  A    between atoms: _131  and  _132
REMARK   51  A    between atoms: _131  and  _134
REMARK   52  A    between atoms: _134  and  _135
REMARK   53  A    between atoms: _138  and  _140
REMARK   54  A    between atoms: _140  and  _141
REMARK   55  A    between atoms: _140  and  _143
REMARK   56  A    between atoms: _143  and  _144
REMARK   57  A    between atoms: _149  and  _151
REMARK   58  A    between atoms: _151  and  _152
REMARK   59  A    between atoms: _151  and  _154
REMARK   60  A    between atoms: _154  and  _155
REMARK   61  A    between atoms: _161  and  _163
REMARK   62  A    between atoms: _163  and  _164
REMARK   63  A    between atoms: _163  and  _166
REMARK   64  A    between atoms: _166  and  _167
REMARK   65  A    between atoms: _173  and  _175
REMARK   66  A    between atoms: _175  and  _176
REMARK   67  A    between atoms: _175  and  _178
REMARK   68  A    between atoms: _178  and  _179
REMARK   69  A    between atoms: _179  and  _180
REMARK   70  A    between atoms: _180  and  _181
REMARK   71  A    between atoms: _190  and  _192
REMARK   72  A    between atoms: _192  and  _193
REMARK   73  A    between atoms: _192  and  _195
REMARK   74  A    between atoms: _195  and  _196
REMARK   75  A    between atoms: _201  and  _203
REMARK   76  A    between atoms: _203  and  _204
REMARK   77  A    between atoms: _203  and  _206
REMARK   78  A    between atoms: _206  and  _207
REMARK   79  A    between atoms: _210  and  _212
REMARK   80  A    between atoms: _212  and  _213
REMARK   81  A    between atoms: _212  and  _215
REMARK   82  A    between atoms: _215  and  _216
REMARK   83  A    between atoms: _219  and  _221
REMARK   84  A    between atoms: _221  and  _222
REMARK   85  A    between atoms: _221  and  _224
REMARK   86  A    between atoms: _224  and  _225
REMARK   87  A    between atoms: _230  and  _232
REMARK   88  A    between atoms: _232  and  _233
REMARK   89  A    between atoms: _232  and  _235
REMARK   90  A    between atoms: _235  and  _236
REMARK   91  A    between atoms: _239  and  _241
REMARK   92  A    between atoms: _241  and  _242
REMARK   93  A    between atoms: _241  and  _244
REMARK   94  A    between atoms: _244  and  _245
REMARK   95  A    between atoms: _250  and  _252
REMARK   96  A    between atoms: _252  and  _253
REMARK   97  A    between atoms: _252  and  _255
REMARK   98  A    between atoms: _255  and  _256
REMARK   99  A    between atoms: _261  and  _263
REMARK  100  A    between atoms: _263  and  _264
REMARK  101  A    between atoms: _263  and  _266
REMARK  102  A    between atoms: _266  and  _267
REMARK  103  A    between atoms: _270  and  _272
REMARK  104  A    between atoms: _272  and  _273
REMARK  105  A    between atoms: _272  and  _275
REMARK  106  A    between atoms: _278  and  _280
REMARK  107  A    between atoms: _280  and  _281
REMARK  108  A    between atoms: _280  and  _283
REMARK  109  A    between atoms: _283  and  _284
REMARK  110  A    between atoms: _287  and  _289
REMARK  111  A    between atoms: _289  and  _290
REMARK  112  A    between atoms: _293  and  _295
REMARK  113  A    between atoms: _295  and  _296
REMARK  114  A    between atoms: _295  and  _298
REMARK  115  A    between atoms: _298  and  _299
REMARK  116  A    between atoms: _302  and  _304
REMARK  117  A    between atoms: _304  and  _305
REMARK  118  A    between atoms: _304  and  _307
REMARK  119  A    between atoms: _307  and  _308
REMARK  120  A    between atoms: _308  and  _309
REMARK  121  A    between atoms: _312  and  _314
REMARK  122  A    between atoms: _314  and  _315
REMARK  123  A    between atoms: _314  and  _317
REMARK  124  A    between atoms: _317  and  _318
REMARK  125  A    between atoms: _323  and  _325
REMARK  126  A    between atoms: _325  and  _326
REMARK  127  A    between atoms: _328  and  _330
REMARK  128  A    between atoms: _330  and  _331
REMARK  129  A    between atoms: _330  and  _333
REMARK  130  A    between atoms: _336  and  _338
REMARK  131  A    between atoms: _338  and  _339
REMARK  132  A    between atoms: _342  and  _344
REMARK  133  A    between atoms: _344  and  _345
REMARK  134  A    between atoms: _344  and  _347
REMARK  135  A    between atoms: _347  and  _348
REMARK  136  A    between atoms: _353  and  _355
REMARK  137  A    between atoms: _355  and  _356
REMARK  138  A    between atoms: _355  and  _358
REMARK  139  A    between atoms: _358  and  _359
REMARK  140  A    between atoms: _359  and  _360
REMARK  141  A    between atoms: _360  and  _361
REMARK  142  A    between atoms: _361  and  _362
REMARK  143  A    between atoms: _366  and  _368
REMARK  144  A    between atoms: _368  and  _369
REMARK  145  A    between atoms: _368  and  _371
REMARK  146  A    between atoms: _371  and  _372
REMARK  147  A    between atoms: _377  and  _379
REMARK  148  A    between atoms: _379  and  _380
REMARK  149  A    between atoms: _382  and  _384
REMARK  150  A    between atoms: _384  and  _385
REMARK  151  A    between atoms: _384  and  _387
REMARK  152  A    between atoms: _387  and  _388
REMARK  153  A    between atoms: _391  and  _393
REMARK  154  A    between atoms: _393  and  _394
REMARK  155  A    between atoms: _393  and  _396
REMARK  156  A    between atoms: _396  and  _397
REMARK  157  A    between atoms: _397  and  _398
REMARK  158  A    between atoms: _398  and  _399
REMARK  159  A    between atoms: _399  and  _400
REMARK  160  A    between atoms: _404  and  _406
REMARK  161  A    between atoms: _406  and  _407
REMARK  162  A    between atoms: _406  and  _409
REMARK  163  A    between atoms: _409  and  _410
REMARK  164  A    between atoms: _410  and  _411
REMARK  165  A    between atoms: _411  and  _412
REMARK  166  A    between atoms: _421  and  _423
REMARK  167  A    between atoms: _423  and  _424
REMARK  168  A    between atoms: _423  and  _426
REMARK  169  A    between atoms: _426  and  _427
REMARK  170  A    between atoms: _432  and  _433
REMARK  171  A    between atoms: _435  and  _437
REMARK  172  A    between atoms: _437  and  _438
REMARK  173  A    between atoms: _437  and  _440
REMARK  174  A    between atoms: _440  and  _441
REMARK  175  A    between atoms: _441  and  _442
REMARK  176  A    between atoms: _442  and  _443
REMARK  177  A    between atoms: _443  and  _444
REMARK  178  A    between atoms: _448  and  _450
REMARK  179  A    between atoms: _450  and  _451
REMARK  180  A    between atoms: _450  and  _453
REMARK  181  A    between atoms: _453  and  _454
REMARK  182  A    between atoms: _456  and  _458
REMARK  183  A    between atoms: _458  and  _459
REMARK  184  A    between atoms: _458  and  _461
REMARK  185  A    between atoms: _461  and  _462
REMARK  186  A    between atoms: _465  and  _467
REMARK  187  A    between atoms: _467  and  _468
REMARK  188  A    between atoms: _467  and  _470
REMARK  189  A    between atoms: _470  and  _471
REMARK  190  A    between atoms: _471  and  _472
REMARK  191  A    between atoms: _475  and  _477
REMARK  192  A    between atoms: _477  and  _478
REMARK  193  A    between atoms: _481  and  _483
REMARK  194  A    between atoms: _483  and  _484
REMARK  195  A    between atoms: _483  and  _486
REMARK  196  A    between atoms: _486  and  _487
REMARK  197  A    between atoms: _489  and  _491
REMARK  198  A    between atoms: _491  and  _492
REMARK  199  A    between atoms: _494  and  _496
REMARK  200  A    between atoms: _496  and  _497
REMARK  201  A    between atoms: _496  and  _499
REMARK  202  A    between atoms: _499  and  _500
REMARK  203  A    between atoms: _503  and  _505
REMARK  204  A    between atoms: _505  and  _506
REMARK  205  A    between atoms: _508  and  _510
REMARK  206  A    between atoms: _510  and  _511
REMARK  207  A    between atoms: _510  and  _513
REMARK  208  A    between atoms: _513  and  _514
REMARK  209  A    between atoms: _519  and  _521
REMARK  210  A    between atoms: _521  and  _522
REMARK  211  A    between atoms: _521  and  _524
REMARK  212  A    between atoms: _524  and  _525
REMARK  213  A    between atoms: _525  and  _526
REMARK  214  A    between atoms: _533  and  _534
REMARK  215  A    between atoms: _534  and  _550
REMARK  216  A    between atoms: _535  and  _537
REMARK  217  A    between atoms: _537  and  _538
REMARK  218  A    between atoms: _538  and  _539
REMARK  219  A    between atoms: _543  and  _545
REMARK  220  A    between atoms: _545  and  _546
REMARK  221  A    between atoms: _545  and  _553
REMARK  222  A    between atoms: _546  and  _547
REMARK  223  A    between atoms: _547  and  _548
REMARK  224  A    between atoms: _548  and  _549
REMARK  225  A    between atoms: _549  and  _550
REMARK  226  A    between atoms: _555  and  _557
REMARK  227  A    between atoms: _557  and  _558
REMARK  228  A    between atoms: _557  and  _560
REMARK  229  A    between atoms: _560  and  _561
REMARK  230  A    between atoms: _564  and  _566
REMARK  231  A    between atoms: _566  and  _567
REMARK  232  A    between atoms: _569  and  _571
REMARK  233  A    between atoms: _571  and  _572
REMARK  234  A    between atoms: _575  and  _577
REMARK  235  A    between atoms: _577  and  _578
REMARK  236  A    between atoms: _577  and  _580
REMARK  237  A    between atoms: _580  and  _581
REMARK  238  A    between atoms: _586  and  _587
REMARK                            x       y       z     vdW  Elec       q    Type
REMARK                         _______ _______ _______ _____ _____    ______ ____
ROOT
ATOM      1  C   ASP A   2      41.316  18.346  34.183  0.00  0.00    +0.241 C 
ATOM      2  O   ASP A   2      41.484  17.298  34.801  0.00  0.00    -0.273 OA
ATOM      3  N   THR A   3      42.128  19.394  34.320  0.00  0.00    -0.295 N 
ATOM      4  H   THR A   3      41.927  20.273  33.802  0.00  0.00    +0.150 HD
ENDROOT
BRANCH   1   5
ATOM      5  CA  ASP A   2      40.144  18.472  33.207  0.00  0.00    +0.160 C 
BRANCH   5   8
ATOM      6  C   ASN A   1      38.451  17.219  34.508  0.00  0.00    +0.239 C 
ATOM      7  O   ASN A   1      38.338  18.103  35.368  0.00  0.00    -0.274 OA
ATOM      8  N   ASP A   2      39.221  17.345  33.424  0.00  0.00    -0.297 N 
ATOM      9  H   ASP A   2      39.166  16.607  32.693  0.00  0.00    +0.150 HD
BRANCH   6  10
ATOM     10  CA  ASN A   1      37.712  15.876  34.648  0.00  0.00    +0.154 C 
BRANCH  10  11
ATOM     11  N   ASN A   1      38.509  14.974  35.477  0.00  0.00    -0.238 NA
ATOM     12  H   ASN A   1      38.286  14.902  36.490  0.00  0.00    +0.142 HD
ENDBRANCH  10  11
BRANCH  10  13
ATOM     13  CB  ASN A   1      36.312  16.060  35.272  0.00  0.00    +0.111 C 
BRANCH  13  14
ATOM     14  CG  ASN A   1      35.295  16.683  34.313  0.00  0.00    +0.221 C 
ATOM     15  ND2 ASN A   1      34.283  17.341  34.876  0.00  0.00    -0.329 N 
ATOM     16 HD21 ASN A   1      34.227  17.422  35.911  0.00  0.00    +0.145 HD
ATOM     17 HD22 ASN A   1      33.549  17.774  34.280  0.00  0.00    +0.145 HD
ATOM     18  OD1 ASN A   1      35.404  16.561  33.093  0.00  0.00    -0.275 OA
ENDBRANCH  13  14
ENDBRANCH  10  13
ENDBRANCH   6  10
ENDBRANCH   5   8
BRANCH   5  19
ATOM     19  CB  ASP A   2      39.439  19.834  33.320  0.00  0.00    +0.143 C 
BRANCH  19  20
ATOM     20  CG  ASP A   2      40.053  20.880  32.402  0.00  0.00    +0.367 C 
ATOM     21  OD2 ASP A   2      41.271  21.104  32.488  0.00  0.00    -0.246 OA
ATOM     22  OD1 ASP A   2      39.326  21.472  31.587  0.00  0.00    -0.246 OA
ENDBRANCH  19  20
ENDBRANCH   5  19
ENDBRANCH   1   5
BRANCH   3  23
ATOM     23  CA  THR A   3      43.299  19.319  35.193  0.00  0.00    +0.176 C 
BRANCH  23  24
ATOM     24  C   THR A   3      42.960  19.746  36.619  0.00  0.00    +0.243 C 
ATOM     25  O   THR A   3      43.818  19.714  37.505  0.00  0.00    -0.273 OA
ATOM     26  N   HIS A   4      41.707  20.132  36.859  0.00  0.00    -0.298 N 
ATOM     27  H   HIS A   4      40.989  20.080  36.109  0.00  0.00    +0.150 HD
BRANCH  26  28
ATOM     28  CA  HIS A   4      41.353  20.628  38.185  0.00  0.00    +0.143 C 
BRANCH  28  29
ATOM     29  C   HIS A   4      41.713  19.669  39.339  0.00  0.00    +0.227 C 
ATOM     30  O   HIS A   4      42.168  20.124  40.381  0.00  0.00    -0.286 OA
ENDBRANCH  28  29
BRANCH  28  31
ATOM     31  CB  HIS A   4      39.882  21.105  38.259  0.00  0.00    +0.075 C 
BRANCH  31  32
ATOM     32  CG  HIS A   4      39.468  21.972  37.107  0.00  0.00    +0.082 A 
ATOM     33  ND1 HIS A   4      38.164  22.061  36.675  0.00  0.00    -0.227 NA
ATOM     34  CE1 HIS A   4      38.095  22.892  35.650  0.00  0.00    +0.199 A 
ATOM     35  NE2 HIS A   4      39.310  23.351  35.404  0.00  0.00    -0.221 NA
ATOM     36  CD2 HIS A   4      40.188  22.783  36.294  0.00  0.00    +0.115 A 
ENDBRANCH  31  32
ENDBRANCH  28  31
ENDBRANCH  26  28
ENDBRANCH  23  24
BRANCH  23  37
ATOM     37  CB  THR A   3      44.462  20.202  34.676  0.00  0.00    +0.137 C 
ATOM     38  CG2 THR A   3      44.923  19.751  33.303  0.00  0.00    +0.034 C 
BRANCH  37  39
ATOM     39  OG1 THR A   3      44.022  21.558  34.593  0.00  0.00    -0.382 OA
ATOM     40  HG1 THR A   3      43.742  21.868  35.490  0.00  0.00    +0.210 HD
ENDBRANCH  37  39
ENDBRANCH  23  37
ENDBRANCH   3  23
TORSDOF 16
REMARK  Name = ../refined-set-2016/3l7b/3l7b_pocket.pdb
REMARK  238 active torsions:
REMARK  status: ('A' for Active; 'I' for Inactive)
REMARK    1  A    between atoms: _1  and  _3
REMARK    2  A    between atoms: _3  and  _4
REMARK    3  A    between atoms: _3  and  _6
REMARK    4  A    between atoms: _6  and  _7
REMARK    5  A    between atoms: _12  and  _13
REMARK    6  A    between atoms: _15  and  _17
REMARK    7  A    between atoms: _17  and  _18
REMARK    8  A    between atoms: _17  and  _20
REMARK    9  A    between atoms: _20  and  _21
REMARK   10  A    between atoms: _21  and  _22
REMARK   11  A    between atoms: _25  and  _27
REMARK   12  A    between atoms: _27  and  _28
REMARK   13  A    between atoms: _27  and  _30
REMARK   14  A    between atoms: _30  and  _31
REMARK   15  A    between atoms: _36  and  _37
REMARK   16  A    between atoms: _39  and  _41
REMARK   17  A    between atoms: _41  and  _42
REMARK   18  A    between atoms: _41  and  _44
REMARK   19  A    between atoms: _44  and  _45
REMARK   20  A    between atoms: _50  and  _52
REMARK   21  A    between atoms: _52  and  _53
REMARK   22  A    between atoms: _55  and  _57
REMARK   23  A    between atoms: _57  and  _58
REMARK   24  A    between atoms: _60  and  _62
REMARK   25  A    between atoms: _62  and  _63
REMARK   26  A    between atoms: _62  and  _65
REMARK   27  A    between atoms: _65  and  _66
REMARK   28  A    between atoms: _69  and  _71
REMARK   29  A    between atoms: _71  and  _72
REMARK   30  A    between atoms: _74  and  _76
REMARK   31  A    between atoms: _76  and  _77
REMARK   32  A    between atoms: _76  and  _79
REMARK   33  A    between atoms: _80  and  _81
REMARK   34  A    between atoms: _81  and  _82
REMARK   35  A    between atoms: _91  and  _93
REMARK   36  A    between atoms: _93  and  _94
REMARK   37  A    between atoms: _93  and  _96
REMARK   38  A    between atoms: _96  and  _97
REMARK   39  A    between atoms: _100  and  _102
REMARK   40  A    between atoms: _102  and  _103
REMARK   41  A    between atoms: _106  and  _108
REMARK   42  A    between atoms: _108  and  _109
REMARK   43  A    between atoms: _108  and  _111
REMARK   44  A    between atoms: _111  and  _112
REMARK   45  A    between atoms: _118  and  _120
REMARK   46  A    between atoms: _120  and  _121
REMARK   47  A    between atoms: _120  and  _123
REMARK   48  A    between atoms: _123  and  _124
REMARK   49  A    between atoms: _129  and  _131
REMARK   50  A    between atoms: _131  and  _132
REMARK   51  A    between atoms: _131  and  _134
REMARK   52  A    between atoms: _134  and  _135
REMARK   53  A    between atoms: _138  and  _140
REMARK   54  A    between atoms: _140  and  _141
REMARK   55  A    between atoms: _140  and  _143
REMARK   56  A    between atoms: _143  and  _144
REMARK   57  A    between atoms: _149  and  _151
REMARK   58  A    between atoms: _151  and  _152
REMARK   59  A    between atoms: _151  and  _154
REMARK   60  A    between atoms: _154  and  _155
REMARK   61  A    between atoms: _161  and  _163
REMARK   62  A    between atoms: _163  and  _164
REMARK   63  A    between atoms: _163  and  _166
REMARK   64  A    between atoms: _166  and  _167
REMARK   65  A    between atoms: _173  and  _175
REMARK   66  A    between atoms: _175  and  _176
REMARK   67  A    between atoms: _175  and  _178
REMARK   68  A    between atoms: _178  and  _179
REMARK   69  A    between atoms: _179  and  _180
REMARK   70  A    between atoms: _180  and  _181
REMARK   71  A    between atoms: _190  and  _192
REMARK   72  A    between atoms: _192  and  _193
REMARK   73  A    between atoms: _192  and  _195
REMARK   74  A    between atoms: _195  and  _196
REMARK   75  A    between atoms: _201  and  _203
REMARK   76  A    between atoms: _203  and  _204
REMARK   77  A    between atoms: _203  and  _206
REMARK   78  A    between atoms: _206  and  _207
REMARK   79  A    between atoms: _210  and  _212
REMARK   80  A    between atoms: _212  and  _213
REMARK   81  A    between atoms: _212  and  _215
REMARK   82  A    between atoms: _215  and  _216
REMARK   83  A    between atoms: _219  and  _221
REMARK   84  A    between atoms: _221  and  _222
REMARK   85  A    between atoms: _221  and  _224
REMARK   86  A    between atoms: _224  and  _225
REMARK   87  A    between atoms: _230  and  _232
REMARK   88  A    between atoms: _232  and  _233
REMARK   89  A    between atoms: _232  and  _235
REMARK   90  A    between atoms: _235  and  _236
REMARK   91  A    between atoms: _239  and  _241
REMARK   92  A    between atoms: _241  and  _242
REMARK   93  A    between atoms: _241  and  _244
REMARK   94  A    between atoms: _244  and  _245
REMARK   95  A    between atoms: _250  and  _252
REMARK   96  A    between atoms: _252  and  _253
REMARK   97  A    between atoms: _252  and  _255
REMARK   98  A    between atoms: _255  and  _256
REMARK   99  A    between atoms: _261  and  _263
REMARK  100  A    between atoms: _263  and  _264
REMARK  101  A    between atoms: _263  and  _266
REMARK  102  A    between atoms: _266  and  _267
REMARK  103  A    between atoms: _270  and  _272
REMARK  104  A    between atoms: _272  and  _273
REMARK  105  A    between atoms: _272  and  _275
REMARK  106  A    between atoms: _278  and  _280
REMARK  107  A    between atoms: _280  and  _281
REMARK  108  A    between atoms: _280  and  _283
REMARK  109  A    between atoms: _283  and  _284
REMARK  110  A    between atoms: _287  and  _289
REMARK  111  A    between atoms: _289  and  _290
REMARK  112  A    between atoms: _293  and  _295
REMARK  113  A    between atoms: _295  and  _296
REMARK  114  A    between atoms: _295  and  _298
REMARK  115  A    between atoms: _298  and  _299
REMARK  116  A    between atoms: _302  and  _304
REMARK  117  A    between atoms: _304  and  _305
REMARK  118  A    between atoms: _304  and  _307
REMARK  119  A    between atoms: _307  and  _308
REMARK  120  A    between atoms: _308  and  _309
REMARK  121  A    between atoms: _312  and  _314
REMARK  122  A    between atoms: _314  and  _315
REMARK  123  A    between atoms: _314  and  _317
REMARK  124  A    between atoms: _317  and  _318
REMARK  125  A    between atoms: _323  and  _325
REMARK  126  A    between atoms: _325  and  _326
REMARK  127  A    between atoms: _328  and  _330
REMARK  128  A    between atoms: _330  and  _331
REMARK  129  A    between atoms: _330  and  _333
REMARK  130  A    between atoms: _336  and  _338
REMARK  131  A    between atoms: _338  and  _339
REMARK  132  A    between atoms: _342  and  _344
REMARK  133  A    between atoms: _344  and  _345
REMARK  134  A    between atoms: _344  and  _347
REMARK  135  A    between atoms: _347  and  _348
REMARK  136  A    between atoms: _353  and  _355
REMARK  137  A    between atoms: _355  and  _356
REMARK  138  A    between atoms: _355  and  _358
REMARK  139  A    between atoms: _358  and  _359
REMARK  140  A    between atoms: _359  and  _360
REMARK  141  A    between atoms: _360  and  _361
REMARK  142  A    between atoms: _361  and  _362
REMARK  143  A    between atoms: _366  and  _368
REMARK  144  A    between atoms: _368  and  _369
REMARK  145  A    between atoms: _368  and  _371
REMARK  146  A    between atoms: _371  and  _372
REMARK  147  A    between atoms: _377  and  _379
REMARK  148  A    between atoms: _379  and  _380
REMARK  149  A    between atoms: _382  and  _384
REMARK  150  A    between atoms: _384  and  _385
REMARK  151  A    between atoms: _384  and  _387
REMARK  152  A    between atoms: _387  and  _388
REMARK  153  A    between atoms: _391  and  _393
REMARK  154  A    between atoms: _393  and  _394
REMARK  155  A    between atoms: _393  and  _396
REMARK  156  A    between atoms: _396  and  _397
REMARK  157  A    between atoms: _397  and  _398
REMARK  158  A    between atoms: _398  and  _399
REMARK  159  A    between atoms: _399  and  _400
REMARK  160  A    between atoms: _404  and  _406
REMARK  161  A    between atoms: _406  and  _407
REMARK  162  A    between atoms: _406  and  _409
REMARK  163  A    between atoms: _409  and  _410
REMARK  164  A    between atoms: _410  and  _411
REMARK  165  A    between atoms: _411  and  _412
REMARK  166  A    between atoms: _421  and  _423
REMARK  167  A    between atoms: _423  and  _424
REMARK  168  A    between atoms: _423  and  _426
REMARK  169  A    between atoms: _426  and  _427
REMARK  170  A    between atoms: _432  and  _433
REMARK  171  A    between atoms: _435  and  _437
REMARK  172  A    between atoms: _437  and  _438
REMARK  173  A    between atoms: _437  and  _440
REMARK  174  A    between atoms: _440  and  _441
REMARK  175  A    between atoms: _441  and  _442
REMARK  176  A    between atoms: _442  and  _443
REMARK  177  A    between atoms: _443  and  _444
REMARK  178  A    between atoms: _448  and  _450
REMARK  179  A    between atoms: _450  and  _451
REMARK  180  A    between atoms: _450  and  _453
REMARK  181  A    between atoms: _453  and  _454
REMARK  182  A    between atoms: _456  and  _458
REMARK  183  A    between atoms: _458  and  _459
REMARK  184  A    between atoms: _458  and  _461
REMARK  185  A    between atoms: _461  and  _462
REMARK  186  A    between atoms: _465  and  _467
REMARK  187  A    between atoms: _467  and  _468
REMARK  188  A    between atoms: _467  and  _470
REMARK  189  A    between atoms: _470  and  _471
REMARK  190  A    between atoms: _471  and  _472
REMARK  191  A    between atoms: _475  and  _477
REMARK  192  A    between atoms: _477  and  _478
REMARK  193  A    between atoms: _481  and  _483
REMARK  194  A    between atoms: _483  and  _484
REMARK  195  A    between atoms: _483  and  _486
REMARK  196  A    between atoms: _486  and  _487
REMARK  197  A    between atoms: _489  and  _491
REMARK  198  A    between atoms: _491  and  _492
REMARK  199  A    between atoms: _494  and  _496
REMARK  200  A    between atoms: _496  and  _497
REMARK  201  A    between atoms: _496  and  _499
REMARK  202  A    between atoms: _499  and  _500
REMARK  203  A    between atoms: _503  and  _505
REMARK  204  A    between atoms: _505  and  _506
REMARK  205  A    between atoms: _508  and  _510
REMARK  206  A    between atoms: _510  and  _511
REMARK  207  A    between atoms: _510  and  _513
REMARK  208  A    between atoms: _513  and  _514
REMARK  209  A    between atoms: _519  and  _521
REMARK  210  A    between atoms: _521  and  _522
REMARK  211  A    between atoms: _521  and  _524
REMARK  212  A    between atoms: _524  and  _525
REMARK  213  A    between atoms: _525  and  _526
REMARK  214  A    between atoms: _533  and  _534
REMARK  215  A    between atoms: _534  and  _550
REMARK  216  A    between atoms: _535  and  _537
REMARK  217  A    between atoms: _537  and  _538
REMARK  218  A    between atoms: _538  and  _539
REMARK  219  A    between atoms: _543  and  _545
REMARK  220  A    between atoms: _545  and  _546
REMARK  221  A    between atoms: _545  and  _553
REMARK  222  A    between atoms: _546  and  _547
REMARK  223  A    between atoms: _547  and  _548
REMARK  224  A    between atoms: _548  and  _549
REMARK  225  A    between atoms: _549  and  _550
REMARK  226  A    between atoms: _555  and  _557
REMARK  227  A    between atoms: _557  and  _558
REMARK  228  A    between atoms: _557  and  _560
REMARK  229  A    between atoms: _560  and  _561
REMARK  230  A    between atoms: _564  and  _566
REMARK  231  A    between atoms: _566  and  _567
REMARK  232  A    between atoms: _569  and  _571
REMARK  233  A    between atoms: _571  and  _572
REMARK  234  A    between atoms: _575  and  _577
REMARK  235  A    between atoms: _577  and  _578
REMARK  236  A    between atoms: _577  and  _580
REMARK  237  A    between atoms: _580  and  _581
REMARK  238  A    between atoms: _586  and  _587
REMARK                            x       y       z     vdW  Elec       q    Type
REMARK                         _______ _______ _______ _____ _____    ______ ____
ROOT
ATOM      1  CA  HIS A   3      38.119  20.046  27.513  0.00  0.00    +0.155 C 
ENDROOT
BRANCH   1   3
ATOM      2  C   ASN A   2      39.705  18.191  27.589  0.00  0.00    +0.241 C 
ATOM      3  N   HIS A   3      39.369  19.435  27.942  0.00  0.00    -0.297 N 
ATOM      4  H   HIS A   3      40.019  19.983  28.541  0.00  0.00    +0.150 HD
ATOM      5  O   ASN A   2      39.035  17.504  26.809  0.00  0.00    -0.273 OA
BRANCH   2   6
ATOM      6  CA  ASN A   2      40.965  17.621  28.202  0.00  0.00    +0.158 C 
BRANCH   6   9
ATOM      7  C   THR A   1      40.357  15.782  29.734  0.00  0.00    +0.241 C 
ATOM      8  O   THR A   1      40.250  16.541  30.722  0.00  0.00    -0.274 OA
ATOM      9  N   ASN A   2      40.718  16.206  28.521  0.00  0.00    -0.297 N 
ATOM     10  H   ASN A   2      40.830  15.502  27.764  0.00  0.00    +0.150 HD
BRANCH   7  11
ATOM     11  CA  THR A   1      40.069  14.279  29.869  0.00  0.00    +0.172 C 
BRANCH  11  12
ATOM     12  N   THR A   1      40.890  13.701  30.942  0.00  0.00    -0.236 NA
ATOM     13  H   THR A   1      40.645  13.918  31.929  0.00  0.00    +0.142 HD
ENDBRANCH  11  12
BRANCH  11  14
ATOM     14  CB  THR A   1      38.556  14.074  30.141  0.00  0.00    +0.135 C 
ATOM     15  CG2 THR A   1      37.704  14.603  28.983  0.00  0.00    +0.034 C 
BRANCH  14  16
ATOM     16  OG1 THR A   1      38.282  12.682  30.331  0.00  0.00    -0.383 OA
ATOM     17  HG1 THR A   1      38.539  12.182  29.516  0.00  0.00    +0.210 HD
ENDBRANCH  14  16
ENDBRANCH  11  14
ENDBRANCH   7  11
ENDBRANCH   6   9
BRANCH   6  18
ATOM     18  CB  ASN A   2      42.163  17.761  27.225  0.00  0.00    +0.114 C 
BRANCH  18  19
ATOM     19  CG  ASN A   2      42.353  19.203  26.711  0.00  0.00    +0.222 C 
ATOM     20  ND2 ASN A   2      43.266  19.935  27.321  0.00  0.00    -0.329 N 
ATOM     21 HD21 ASN A   2      43.806  19.537  28.116  0.00  0.00    +0.145 HD
ATOM     22 HD22 ASN A   2      43.446  20.910  27.007  0.00  0.00    +0.145 HD
ATOM     23  OD1 ASN A   2      41.692  19.632  25.768  0.00  0.00    -0.275 OA
ENDBRANCH  18  19
ENDBRANCH   6  18
ENDBRANCH   2   6
ENDBRANCH   1   3
BRANCH   1  24
ATOM     24  C   HIS A   3      38.292  21.341  26.702  0.00  0.00    +0.241 C 
ATOM     25  N   THR A   4      39.532  21.795  26.489  0.00  0.00    -0.295 N 
ATOM     26  H   THR A   4      40.349  21.255  26.839  0.00  0.00    +0.150 HD
ATOM     27  O   HIS A   3      37.298  21.936  26.288  0.00  0.00    -0.273 OA
BRANCH  25  28
ATOM     28  CA  THR A   4      39.746  23.059  25.759  0.00  0.00    +0.176 C 
BRANCH  28  29
ATOM     29  C   THR A   4      41.180  23.205  25.261  0.00  0.00    +0.243 C 
ATOM     30  O   THR A   4      42.095  22.592  25.819  0.00  0.00    -0.273 OA
ATOM     31  N   VAL A   5      41.355  24.002  24.206  0.00  0.00    -0.297 N 
ATOM     32  H   VAL A   5      40.518  24.393  23.728  0.00  0.00    +0.150 HD
BRANCH  31  33
ATOM     33  CA  VAL A   5      42.684  24.346  23.698  0.00  0.00    +0.149 C 
BRANCH  33  34
ATOM     34  C   VAL A   5      43.021  25.824  23.900  0.00  0.00    +0.241 C 
ATOM     35  N   LEU A   6      42.091  26.606  24.448  0.00  0.00    -0.298 N 
ATOM     36  H   LEU A   6      41.164  26.204  24.695  0.00  0.00    +0.150 HD
ATOM     37  O   VAL A   5      44.121  26.242  23.563  0.00  0.00    -0.273 OA
BRANCH  35  38
ATOM     38  CA  LEU A   6      42.355  28.019  24.707  0.00  0.00    +0.137 C 
BRANCH  38  39
ATOM     39  C   LEU A   6      43.450  28.165  25.758  0.00  0.00    +0.227 C 
ATOM     40  O   LEU A   6      43.317  27.644  26.861  0.00  0.00    -0.286 OA
ENDBRANCH  38  39
BRANCH  38  41
ATOM     41  CB  LEU A   6      41.101  28.763  25.170  0.00  0.00    +0.028 C 
BRANCH  41  42
ATOM     42  CG  LEU A   6      39.908  28.956  24.222  0.00  0.00    +0.002 C 
ATOM     43  CD2 LEU A   6      38.943  29.923  24.887  0.00  0.00    +0.000 C 
ATOM     44  CD1 LEU A   6      40.322  29.476  22.846  0.00  0.00    +0.000 C 
ENDBRANCH  41  42
ENDBRANCH  38  41
ENDBRANCH  35  38
ENDBRANCH  33  34
BRANCH  33  45
ATOM     45  CB  VAL A   5      42.888  23.975  22.188  0.00  0.00    +0.027 C 
ATOM     46  CG2 VAL A   5      42.665  22.460  21.946  0.00  0.00    +0.002 C 
ATOM     47  CG1 VAL A   5      42.007  24.843  21.273  0.00  0.00    +0.002 C 
ENDBRANCH  33  45
ENDBRANCH  31  33
ENDBRANCH  28  29
BRANCH  28  48
ATOM     48  CB  THR A   4      39.313  24.325  26.588  0.00  0.00    +0.137 C 
ATOM     49  CG2 THR A   4      40.099  24.437  27.896  0.00  0.00    +0.034 C 
BRANCH  48  50
ATOM     50  OG1 THR A   4      39.473  25.526  25.808  0.00  0.00    -0.382 OA
ATOM     51  HG1 THR A   4      39.195  26.308  26.348  0.00  0.00    +0.210 HD
ENDBRANCH  48  50
ENDBRANCH  28  48
ENDBRANCH  25  28
ENDBRANCH   1  24
BRANCH   1  52
ATOM     52  CB  HIS A   3      37.220  20.344  28.725  0.00  0.00    +0.076 C 
BRANCH  52  53
ATOM     53  CG  HIS A   3      36.774  19.131  29.484  0.00  0.00    +0.082 A 
ATOM     54  CD2 HIS A   3      37.341  18.470  30.521  0.00  0.00    +0.115 A 
ATOM     55  NE2 HIS A   3      36.500  17.435  30.853  0.00  0.00    -0.221 NA
ATOM     56  CE1 HIS A   3      35.443  17.472  30.057  0.00  0.00    +0.199 A 
ATOM     57  ND1 HIS A   3      35.586  18.486  29.222  0.00  0.00    -0.227 NA
ENDBRANCH  52  53
ENDBRANCH   1  52
TORSDOF 23
REMARK  Name = ../refined-set-2016/3l7b/3l7b_pocket.pdb
REMARK  238 active torsions:
REMARK  status: ('A' for Active; 'I' for Inactive)
REMARK    1  A    between atoms: _1  and  _3
REMARK    2  A    between atoms: _3  and  _4
REMARK    3  A    between atoms: _3  and  _6
REMARK    4  A    between atoms: _6  and  _7
REMARK    5  A    between atoms: _12  and  _13
REMARK    6  A    between atoms: _15  and  _17
REMARK    7  A    between atoms: _17  and  _18
REMARK    8  A    between atoms: _17  and  _20
REMARK    9  A    between atoms: _20  and  _21
REMARK   10  A    between atoms: _21  and  _22
REMARK   11  A    between atoms: _25  and  _27
REMARK   12  A    between atoms: _27  and  _28
REMARK   13  A    between atoms: _27  and  _30
REMARK   14  A    between atoms: _30  and  _31
REMARK   15  A    between atoms: _36  and  _37
REMARK   16  A    between atoms: _39  and  _41
REMARK   17  A    between atoms: _41  and  _42
REMARK   18  A    between atoms: _41  and  _44
REMARK   19  A    between atoms: _44  and  _45
REMARK   20  A    between atoms: _50  and  _52
REMARK   21  A    between atoms: _52  and  _53
REMARK   22  A    between atoms: _55  and  _57
REMARK   23  A    between atoms: _57  and  _58
REMARK   24  A    between atoms: _60  and  _62
REMARK   25  A    between atoms: _62  and  _63
REMARK   26  A    between atoms: _62  and  _65
REMARK   27  A    between atoms: _65  and  _66
REMARK   28  A    between atoms: _69  and  _71
REMARK   29  A    between atoms: _71  and  _72
REMARK   30  A    between atoms: _74  and  _76
REMARK   31  A    between atoms: _76  and  _77
REMARK   32  A    between atoms: _76  and  _79
REMARK   33  A    between atoms: _80  and  _81
REMARK   34  A    between atoms: _81  and  _82
REMARK   35  A    between atoms: _91  and  _93
REMARK   36  A    between atoms: _93  and  _94
REMARK   37  A    between atoms: _93  and  _96
REMARK   38  A    between atoms: _96  and  _97
REMARK   39  A    between atoms: _100  and  _102
REMARK   40  A    between atoms: _102  and  _103
REMARK   41  A    between atoms: _106  and  _108
REMARK   42  A    between atoms: _108  and  _109
REMARK   43  A    between atoms: _108  and  _111
REMARK   44  A    between atoms: _111  and  _112
REMARK   45  A    between atoms: _118  and  _120
REMARK   46  A    between atoms: _120  and  _121
REMARK   47  A    between atoms: _120  and  _123
REMARK   48  A    between atoms: _123  and  _124
REMARK   49  A    between atoms: _129  and  _131
REMARK   50  A    between atoms: _131  and  _132
REMARK   51  A    between atoms: _131  and  _134
REMARK   52  A    between atoms: _134  and  _135
REMARK   53  A    between atoms: _138  and  _140
REMARK   54  A    between atoms: _140  and  _141
REMARK   55  A    between atoms: _140  and  _143
REMARK   56  A    between atoms: _143  and  _144
REMARK   57  A    between atoms: _149  and  _151
REMARK   58  A    between atoms: _151  and  _152
REMARK   59  A    between atoms: _151  and  _154
REMARK   60  A    between atoms: _154  and  _155
REMARK   61  A    between atoms: _161  and  _163
REMARK   62  A    between atoms: _163  and  _164
REMARK   63  A    between atoms: _163  and  _166
REMARK   64  A    between atoms: _166  and  _167
REMARK   65  A    between atoms: _173  and  _175
REMARK   66  A    between atoms: _175  and  _176
REMARK   67  A    between atoms: _175  and  _178
REMARK   68  A    between atoms: _178  and  _179
REMARK   69  A    between atoms: _179  and  _180
REMARK   70  A    between atoms: _180  and  _181
REMARK   71  A    between atoms: _190  and  _192
REMARK   72  A    between atoms: _192  and  _193
REMARK   73  A    between atoms: _192  and  _195
REMARK   74  A    between atoms: _195  and  _196
REMARK   75  A    between atoms: _201  and  _203
REMARK   76  A    between atoms: _203  and  _204
REMARK   77  A    between atoms: _203  and  _206
REMARK   78  A    between atoms: _206  and  _207
REMARK   79  A    between atoms: _210  and  _212
REMARK   80  A    between atoms: _212  and  _213
REMARK   81  A    between atoms: _212  and  _215
REMARK   82  A    between atoms: _215  and  _216
REMARK   83  A    between atoms: _219  and  _221
REMARK   84  A    between atoms: _221  and  _222
REMARK   85  A    between atoms: _221  and  _224
REMARK   86  A    between atoms: _224  and  _225
REMARK   87  A    between atoms: _230  and  _232
REMARK   88  A    between atoms: _232  and  _233
REMARK   89  A    between atoms: _232  and  _235
REMARK   90  A    between atoms: _235  and  _236
REMARK   91  A    between atoms: _239  and  _241
REMARK   92  A    between atoms: _241  and  _242
REMARK   93  A    between atoms: _241  and  _244
REMARK   94  A    between atoms: _244  and  _245
REMARK   95  A    between atoms: _250  and  _252
REMARK   96  A    between atoms: _252  and  _253
REMARK   97  A    between atoms: _252  and  _255
REMARK   98  A    between atoms: _255  and  _256
REMARK   99  A    between atoms: _261  and  _263
REMARK  100  A    between atoms: _263  and  _264
REMARK  101  A    between atoms: _263  and  _266
REMARK  102  A    between atoms: _266  and  _267
REMARK  103  A    between atoms: _270  and  _272
REMARK  104  A    between atoms: _272  and  _273
REMARK  105  A    between atoms: _272  and  _275
REMARK  106  A    between atoms: _278  and  _280
REMARK  107  A    between atoms: _280  and  _281
REMARK  108  A    between atoms: _280  and  _283
REMARK  109  A    between atoms: _283  and  _284
REMARK  110  A    between atoms: _287  and  _289
REMARK  111  A    between atoms: _289  and  _290
REMARK  112  A    between atoms: _293  and  _295
REMARK  113  A    between atoms: _295  and  _296
REMARK  114  A    between atoms: _295  and  _298
REMARK  115  A    between atoms: _298  and  _299
REMARK  116  A    between atoms: _302  and  _304
REMARK  117  A    between atoms: _304  and  _305
REMARK  118  A    between atoms: _304  and  _307
REMARK  119  A    between atoms: _307  and  _308
REMARK  120  A    between atoms: _308  and  _309
REMARK  121  A    between atoms: _312  and  _314
REMARK  122  A    between atoms: _314  and  _315
REMARK  123  A    between atoms: _314  and  _317
REMARK  124  A    between atoms: _317  and  _318
REMARK  125  A    between atoms: _323  and  _325
REMARK  126  A    between atoms: _325  and  _326
REMARK  127  A    between atoms: _328  and  _330
REMARK  128  A    between atoms: _330  and  _331
REMARK  129  A    between atoms: _330  and  _333
REMARK  130  A    between atoms: _336  and  _338
REMARK  131  A    between atoms: _338  and  _339
REMARK  132  A    between atoms: _342  and  _344
REMARK  133  A    between atoms: _344  and  _345
REMARK  134  A    between atoms: _344  and  _347
REMARK  135  A    between atoms: _347  and  _348
REMARK  136  A    between atoms: _353  and  _355
REMARK  137  A    between atoms: _355  and  _356
REMARK  138  A    between atoms: _355  and  _358
REMARK  139  A    between atoms: _358  and  _359
REMARK  140  A    between atoms: _359  and  _360
REMARK  141  A    between atoms: _360  and  _361
REMARK  142  A    between atoms: _361  and  _362
REMARK  143  A    between atoms: _366  and  _368
REMARK  144  A    between atoms: _368  and  _369
REMARK  145  A    between atoms: _368  and  _371
REMARK  146  A    between atoms: _371  and  _372
REMARK  147  A    between atoms: _377  and  _379
REMARK  148  A    between atoms: _379  and  _380
REMARK  149  A    between atoms: _382  and  _384
REMARK  150  A    between atoms: _384  and  _385
REMARK  151  A    between atoms: _384  and  _387
REMARK  152  A    between atoms: _387  and  _388
REMARK  153  A    between atoms: _391  and  _393
REMARK  154  A    between atoms: _393  and  _394
REMARK  155  A    between atoms: _393  and  _396
REMARK  156  A    between atoms: _396  and  _397
REMARK  157  A    between atoms: _397  and  _398
REMARK  158  A    between atoms: _398  and  _399
REMARK  159  A    between atoms: _399  and  _400
REMARK  160  A    between atoms: _404  and  _406
REMARK  161  A    between atoms: _406  and  _407
REMARK  162  A    between atoms: _406  and  _409
REMARK  163  A    between atoms: _409  and  _410
REMARK  164  A    between atoms: _410  and  _411
REMARK  165  A    between atoms: _411  and  _412
REMARK  166  A    between atoms: _421  and  _423
REMARK  167  A    between atoms: _423  and  _424
REMARK  168  A    between atoms: _423  and  _426
REMARK  169  A    between atoms: _426  and  _427
REMARK  170  A    between atoms: _432  and  _433
REMARK  171  A    between atoms: _435  and  _437
REMARK  172  A    between atoms: _437  and  _438
REMARK  173  A    between atoms: _437  and  _440
REMARK  174  A    between atoms: _440  and  _441
REMARK  175  A    between atoms: _441  and  _442
REMARK  176  A    between atoms: _442  and  _443
REMARK  177  A    between atoms: _443  and  _444
REMARK  178  A    between atoms: _448  and  _450
REMARK  179  A    between atoms: _450  and  _451
REMARK  180  A    between atoms: _450  and  _453
REMARK  181  A    between atoms: _453  and  _454
REMARK  182  A    between atoms: _456  and  _458
REMARK  183  A    between atoms: _458  and  _459
REMARK  184  A    between atoms: _458  and  _461
REMARK  185  A    between atoms: _461  and  _462
REMARK  186  A    between atoms: _465  and  _467
REMARK  187  A    between atoms: _467  and  _468
REMARK  188  A    between atoms: _467  and  _470
REMARK  189  A    between atoms: _470  and  _471
REMARK  190  A    between atoms: _471  and  _472
REMARK  191  A    between atoms: _475  and  _477
REMARK  192  A    between atoms: _477  and  _478
REMARK  193  A    between atoms: _481  and  _483
REMARK  194  A    between atoms: _483  and  _484
REMARK  195  A    between atoms: _483  and  _486
REMARK  196  A    between atoms: _486  and  _487
REMARK  197  A    between atoms: _489  and  _491
REMARK  198  A    between atoms: _491  and  _492
REMARK  199  A    between atoms: _494  and  _496
REMARK  200  A    between atoms: _496  and  _497
REMARK  201  A    between atoms: _496  and  _499
REMARK  202  A    between atoms: _499  and  _500
REMARK  203  A    between atoms: _503  and  _505
REMARK  204  A    between atoms: _505  and  _506
REMARK  205  A    between atoms: _508  and  _510
REMARK  206  A    between atoms: _510  and  _511
REMARK  207  A    between atoms: _510  and  _513
REMARK  208  A    between atoms: _513  and  _514
REMARK  209  A    between atoms: _519  and  _521
REMARK  210  A    between atoms: _521  and  _522
REMARK  211  A    between atoms: _521  and  _524
REMARK  212  A    between atoms: _524  and  _525
REMARK  213  A    between atoms: _525  and  _526
REMARK  214  A    between atoms: _533  and  _534
REMARK  215  A    between atoms: _534  and  _550
REMARK  216  A    between atoms: _535  and  _537
REMARK  217  A    between atoms: _537  and  _538
REMARK  218  A    between atoms: _538  and  _539
REMARK  219  A    between atoms: _543  and  _545
REMARK  220  A    between atoms: _545  and  _546
REMARK  221  A    between atoms: _545  and  _553
REMARK  222  A    between atoms: _546  and  _547
REMARK  223  A    between atoms: _547  and  _548
REMARK  224  A    between atoms: _548  and  _549
REMARK  225  A    between atoms: _549  and  _550
REMARK  226  A    between atoms: _555  and  _557
REMARK  227  A    between atoms: _557  and  _558
REMARK  228  A    between atoms: _557  and  _560
REMARK  229  A    between atoms: _560  and  _561
REMARK  230  A    between atoms: _564  and  _566
REMARK  231  A    between atoms: _566  and  _567
REMARK  232  A    between atoms: _569  and  _571
REMARK  233  A    between atoms: _571  and  _572
REMARK  234  A    between atoms: _575  and  _577
REMARK  235  A    between atoms: _577  and  _578
REMARK  236  A    between atoms: _577  and  _580
REMARK  237  A    between atoms: _580  and  _581
REMARK  238  A    between atoms: _586  and  _587
REMARK                            x       y       z     vdW  Elec       q    Type
REMARK                         _______ _______ _______ _____ _____    ______ ____
ROOT
ATOM      1  CA  LEU A   2      45.183  26.100  31.005  0.00  0.00    +0.149 C 
ENDROOT
BRANCH   1   4
ATOM      2  C   ALA A   1      43.035  27.228  30.953  0.00  0.00    +0.238 C 
ATOM      3  O   ALA A   1      42.604  26.508  31.863  0.00  0.00    -0.274 OA
ATOM      4  N   LEU A   2      44.284  27.128  30.496  0.00  0.00    -0.297 N 
ATOM      5  H   LEU A   2      44.620  27.791  29.768  0.00  0.00    +0.150 HD
BRANCH   2   6
ATOM      6  CA  ALA A   1      42.125  28.283  30.299  0.00  0.00    +0.145 C 
ATOM      7  CB  ALA A   1      41.004  27.597  29.502  0.00  0.00    +0.028 C 
BRANCH   6   8
ATOM      8  N   ALA A   1      42.846  29.238  29.447  0.00  0.00    -0.238 NA
ATOM      9  H   ALA A   1      42.992  29.006  28.444  0.00  0.00    +0.142 HD
ENDBRANCH   6   8
ENDBRANCH   2   6
ENDBRANCH   1   4
BRANCH   1  10
ATOM     10  C   LEU A   2      45.747  26.462  32.377  0.00  0.00    +0.241 C 
ATOM     11  N   GLU A   3      45.749  25.486  33.284  0.00  0.00    -0.298 N 
ATOM     12  H   GLU A   3      45.417  24.539  33.010  0.00  0.00    +0.150 HD
ATOM     13  O   LEU A   2      46.141  27.604  32.616  0.00  0.00    -0.273 OA
BRANCH  11  14
ATOM     14  CA  GLU A   3      46.203  25.710  34.645  0.00  0.00    +0.137 C 
BRANCH  14  15
ATOM     15  C   GLU A   3      47.714  25.641  34.722  0.00  0.00    +0.227 C 
ATOM     16  O   GLU A   3      48.306  24.603  34.462  0.00  0.00    -0.286 OA
ENDBRANCH  14  15
BRANCH  14  17
ATOM     17  CB  GLU A   3      45.603  24.687  35.621  0.00  0.00    +0.039 C 
BRANCH  17  18
ATOM     18  CG  GLU A   3      44.098  24.818  35.844  0.00  0.00    +0.116 C 
BRANCH  18  19
ATOM     19  CD  GLU A   3      43.650  24.020  37.047  0.00  0.00    +0.365 C 
ATOM     20  OE2 GLU A   3      43.280  24.646  38.056  0.00  0.00    -0.246 OA
ATOM     21  OE1 GLU A   3      43.702  22.768  36.995  0.00  0.00    -0.246 OA
ENDBRANCH  18  19
ENDBRANCH  17  18
ENDBRANCH  14  17
ENDBRANCH  11  14
ENDBRANCH   1  10
BRANCH   1  22
ATOM     22  CB  LEU A   2      46.300  25.799  30.003  0.00  0.00    +0.029 C 
BRANCH  22  23
ATOM     23  CG  LEU A   2      45.897  25.432  28.569  0.00  0.00    +0.002 C 
ATOM     24  CD2 LEU A   2      44.745  24.410  28.468  0.00  0.00    +0.000 C 
ATOM     25  CD1 LEU A   2      47.126  24.924  27.813  0.00  0.00    +0.000 C 
ENDBRANCH  22  23
ENDBRANCH   1  22
TORSDOF 11
REMARK  Name = ../refined-set-2016/3l7b/3l7b_pocket.pdb
REMARK  238 active torsions:
REMARK  status: ('A' for Active; 'I' for Inactive)
REMARK    1  A    between atoms: _1  and  _3
REMARK    2  A    between atoms: _3  and  _4
REMARK    3  A    between atoms: _3  and  _6
REMARK    4  A    between atoms: _6  and  _7
REMARK    5  A    between atoms: _12  and  _13
REMARK    6  A    between atoms: _15  and  _17
REMARK    7  A    between atoms: _17  and  _18
REMARK    8  A    between atoms: _17  and  _20
REMARK    9  A    between atoms: _20  and  _21
REMARK   10  A    between atoms: _21  and  _22
REMARK   11  A    between atoms: _25  and  _27
REMARK   12  A    between atoms: _27  and  _28
REMARK   13  A    between atoms: _27  and  _30
REMARK   14  A    between atoms: _30  and  _31
REMARK   15  A    between atoms: _36  and  _37
REMARK   16  A    between atoms: _39  and  _41
REMARK   17  A    between atoms: _41  and  _42
REMARK   18  A    between atoms: _41  and  _44
REMARK   19  A    between atoms: _44  and  _45
REMARK   20  A    between atoms: _50  and  _52
REMARK   21  A    between atoms: _52  and  _53
REMARK   22  A    between atoms: _55  and  _57
REMARK   23  A    between atoms: _57  and  _58
REMARK   24  A    between atoms: _60  and  _62
REMARK   25  A    between atoms: _62  and  _63
REMARK   26  A    between atoms: _62  and  _65
REMARK   27  A    between atoms: _65  and  _66
REMARK   28  A    between atoms: _69  and  _71
REMARK   29  A    between atoms: _71  and  _72
REMARK   30  A    between atoms: _74  and  _76
REMARK   31  A    between atoms: _76  and  _77
REMARK   32  A    between atoms: _76  and  _79
REMARK   33  A    between atoms: _80  and  _81
REMARK   34  A    between atoms: _81  and  _82
REMARK   35  A    between atoms: _91  and  _93
REMARK   36  A    between atoms: _93  and  _94
REMARK   37  A    between atoms: _93  and  _96
REMARK   38  A    between atoms: _96  and  _97
REMARK   39  A    between atoms: _100  and  _102
REMARK   40  A    between atoms: _102  and  _103
REMARK   41  A    between atoms: _106  and  _108
REMARK   42  A    between atoms: _108  and  _109
REMARK   43  A    between atoms: _108  and  _111
REMARK   44  A    between atoms: _111  and  _112
REMARK   45  A    between atoms: _118  and  _120
REMARK   46  A    between atoms: _120  and  _121
REMARK   47  A    between atoms: _120  and  _123
REMARK   48  A    between atoms: _123  and  _124
REMARK   49  A    between atoms: _129  and  _131
REMARK   50  A    between atoms: _131  and  _132
REMARK   51  A    between atoms: _131  and  _134
REMARK   52  A    between atoms: _134  and  _135
REMARK   53  A    between atoms: _138  and  _140
REMARK   54  A    between atoms: _140  and  _141
REMARK   55  A    between atoms: _140  and  _143
REMARK   56  A    between atoms: _143  and  _144
REMARK   57  A    between atoms: _149  and  _151
REMARK   58  A    between atoms: _151  and  _152
REMARK   59  A    between atoms: _151  and  _154
REMARK   60  A    between atoms: _154  and  _155
REMARK   61  A    between atoms: _161  and  _163
REMARK   62  A    between atoms: _163  and  _164
REMARK   63  A    between atoms: _163  and  _166
REMARK   64  A    between atoms: _166  and  _167
REMARK   65  A    between atoms: _173  and  _175
REMARK   66  A    between atoms: _175  and  _176
REMARK   67  A    between atoms: _175  and  _178
REMARK   68  A    between atoms: _178  and  _179
REMARK   69  A    between atoms: _179  and  _180
REMARK   70  A    between atoms: _180  and  _181
REMARK   71  A    between atoms: _190  and  _192
REMARK   72  A    between atoms: _192  and  _193
REMARK   73  A    between atoms: _192  and  _195
REMARK   74  A    between atoms: _195  and  _196
REMARK   75  A    between atoms: _201  and  _203
REMARK   76  A    between atoms: _203  and  _204
REMARK   77  A    between atoms: _203  and  _206
REMARK   78  A    between atoms: _206  and  _207
REMARK   79  A    between atoms: _210  and  _212
REMARK   80  A    between atoms: _212  and  _213
REMARK   81  A    between atoms: _212  and  _215
REMARK   82  A    between atoms: _215  and  _216
REMARK   83  A    between atoms: _219  and  _221
REMARK   84  A    between atoms: _221  and  _222
REMARK   85  A    between atoms: _221  and  _224
REMARK   86  A    between atoms: _224  and  _225
REMARK   87  A    between atoms: _230  and  _232
REMARK   88  A    between atoms: _232  and  _233
REMARK   89  A    between atoms: _232  and  _235
REMARK   90  A    between atoms: _235  and  _236
REMARK   91  A    between atoms: _239  and  _241
REMARK   92  A    between atoms: _241  and  _242
REMARK   93  A    between atoms: _241  and  _244
REMARK   94  A    between atoms: _244  and  _245
REMARK   95  A    between atoms: _250  and  _252
REMARK   96  A    between atoms: _252  and  _253
REMARK   97  A    between atoms: _252  and  _255
REMARK   98  A    between atoms: _255  and  _256
REMARK   99  A    between atoms: _261  and  _263
REMARK  100  A    between atoms: _263  and  _264
REMARK  101  A    between atoms: _263  and  _266
REMARK  102  A    between atoms: _266  and  _267
REMARK  103  A    between atoms: _270  and  _272
REMARK  104  A    between atoms: _272  and  _273
REMARK  105  A    between atoms: _272  and  _275
REMARK  106  A    between atoms: _278  and  _280
REMARK  107  A    between atoms: _280  and  _281
REMARK  108  A    between atoms: _280  and  _283
REMARK  109  A    between atoms: _283  and  _284
REMARK  110  A    between atoms: _287  and  _289
REMARK  111  A    between atoms: _289  and  _290
REMARK  112  A    between atoms: _293  and  _295
REMARK  113  A    between atoms: _295  and  _296
REMARK  114  A    between atoms: _295  and  _298
REMARK  115  A    between atoms: _298  and  _299
REMARK  116  A    between atoms: _302  and  _304
REMARK  117  A    between atoms: _304  and  _305
REMARK  118  A    between atoms: _304  and  _307
REMARK  119  A    between atoms: _307  and  _308
REMARK  120  A    between atoms: _308  and  _309
REMARK  121  A    between atoms: _312  and  _314
REMARK  122  A    between atoms: _314  and  _315
REMARK  123  A    between atoms: _314  and  _317
REMARK  124  A    between atoms: _317  and  _318
REMARK  125  A    between atoms: _323  and  _325
REMARK  126  A    between atoms: _325  and  _326
REMARK  127  A    between atoms: _328  and  _330
REMARK  128  A    between atoms: _330  and  _331
REMARK  129  A    between atoms: _330  and  _333
REMARK  130  A    between atoms: _336  and  _338
REMARK  131  A    between atoms: _338  and  _339
REMARK  132  A    between atoms: _342  and  _344
REMARK  133  A    between atoms: _344  and  _345
REMARK  134  A    between atoms: _344  and  _347
REMARK  135  A    between atoms: _347  and  _348
REMARK  136  A    between atoms: _353  and  _355
REMARK  137  A    between atoms: _355  and  _356
REMARK  138  A    between atoms: _355  and  _358
REMARK  139  A    between atoms: _358  and  _359
REMARK  140  A    between atoms: _359  and  _360
REMARK  141  A    between atoms: _360  and  _361
REMARK  142  A    between atoms: _361  and  _362
REMARK  143  A    between atoms: _366  and  _368
REMARK  144  A    between atoms: _368  and  _369
REMARK  145  A    between atoms: _368  and  _371
REMARK  146  A    between atoms: _371  and  _372
REMARK  147  A    between atoms: _377  and  _379
REMARK  148  A    between atoms: _379  and  _380
REMARK  149  A    between atoms: _382  and  _384
REMARK  150  A    between atoms: _384  and  _385
REMARK  151  A    between atoms: _384  and  _387
REMARK  152  A    between atoms: _387  and  _388
REMARK  153  A    between atoms: _391  and  _393
REMARK  154  A    between atoms: _393  and  _394
REMARK  155  A    between atoms: _393  and  _396
REMARK  156  A    between atoms: _396  and  _397
REMARK  157  A    between atoms: _397  and  _398
REMARK  158  A    between atoms: _398  and  _399
REMARK  159  A    between atoms: _399  and  _400
REMARK  160  A    between atoms: _404  and  _406
REMARK  161  A    between atoms: _406  and  _407
REMARK  162  A    between atoms: _406  and  _409
REMARK  163  A    between atoms: _409  and  _410
REMARK  164  A    between atoms: _410  and  _411
REMARK  165  A    between atoms: _411  and  _412
REMARK  166  A    between atoms: _421  and  _423
REMARK  167  A    between atoms: _423  and  _424
REMARK  168  A    between atoms: _423  and  _426
REMARK  169  A    between atoms: _426  and  _427
REMARK  170  A    between atoms: _432  and  _433
REMARK  171  A    between atoms: _435  and  _437
REMARK  172  A    between atoms: _437  and  _438
REMARK  173  A    between atoms: _437  and  _440
REMARK  174  A    between atoms: _440  and  _441
REMARK  175  A    between atoms: _441  and  _442
REMARK  176  A    between atoms: _442  and  _443
REMARK  177  A    between atoms: _443  and  _444
REMARK  178  A    between atoms: _448  and  _450
REMARK  179  A    between atoms: _450  and  _451
REMARK  180  A    between atoms: _450  and  _453
REMARK  181  A    between atoms: _453  and  _454
REMARK  182  A    between atoms: _456  and  _458
REMARK  183  A    between atoms: _458  and  _459
REMARK  184  A    between atoms: _458  and  _461
REMARK  185  A    between atoms: _461  and  _462
REMARK  186  A    between atoms: _465  and  _467
REMARK  187  A    between atoms: _467  and  _468
REMARK  188  A    between atoms: _467  and  _470
REMARK  189  A    between atoms: _470  and  _471
REMARK  190  A    between atoms: _471  and  _472
REMARK  191  A    between atoms: _475  and  _477
REMARK  192  A    between atoms: _477  and  _478
REMARK  193  A    between atoms: _481  and  _483
REMARK  194  A    between atoms: _483  and  _484
REMARK  195  A    between atoms: _483  and  _486
REMARK  196  A    between atoms: _486  and  _487
REMARK  197  A    between atoms: _489  and  _491
REMARK  198  A    between atoms: _491  and  _492
REMARK  199  A    between atoms: _494  and  _496
REMARK  200  A    between atoms: _496  and  _497
REMARK  201  A    between atoms: _496  and  _499
REMARK  202  A    between atoms: _499  and  _500
REMARK  203  A    between atoms: _503  and  _505
REMARK  204  A    between atoms: _505  and  _506
REMARK  205  A    between atoms: _508  and  _510
REMARK  206  A    between atoms: _510  and  _511
REMARK  207  A    between atoms: _510  and  _513
REMARK  208  A    between atoms: _513  and  _514
REMARK  209  A    between atoms: _519  and  _521
REMARK  210  A    between atoms: _521  and  _522
REMARK  211  A    between atoms: _521  and  _524
REMARK  212  A    between atoms: _524  and  _525
REMARK  213  A    between atoms: _525  and  _526
REMARK  214  A    between atoms: _533  and  _534
REMARK  215  A    between atoms: _534  and  _550
REMARK  216  A    between atoms: _535  and  _537
REMARK  217  A    between atoms: _537  and  _538
REMARK  218  A    between atoms: _538  and  _539
REMARK  219  A    between atoms: _543  and  _545
REMARK  220  A    between atoms: _545  and  _546
REMARK  221  A    between atoms: _545  and  _553
REMARK  222  A    between atoms: _546  and  _547
REMARK  223  A    between atoms: _547  and  _548
REMARK  224  A    between atoms: _548  and  _549
REMARK  225  A    between atoms: _549  and  _550
REMARK  226  A    between atoms: _555  and  _557
REMARK  227  A    between atoms: _557  and  _558
REMARK  228  A    between atoms: _557  and  _560
REMARK  229  A    between atoms: _560  and  _561
REMARK  230  A    between atoms: _564  and  _566
REMARK  231  A    between atoms: _566  and  _567
REMARK  232  A    between atoms: _569  and  _571
REMARK  233  A    between atoms: _571  and  _572
REMARK  234  A    between atoms: _575  and  _577
REMARK  235  A    between atoms: _577  and  _578
REMARK  236  A    between atoms: _577  and  _580
REMARK  237  A    between atoms: _580  and  _581
REMARK  238  A    between atoms: _586  and  _587
REMARK                            x       y       z     vdW  Elec       q    Type
REMARK                         _______ _______ _______ _____ _____    ______ ____
ROOT
ATOM      1  C   GLY A   2      38.105  14.608  23.680  0.00  0.00    +0.243 C 
ATOM      2  O   GLY A   2      37.728  13.437  23.822  0.00  0.00    -0.273 OA
ATOM      3  N   VAL A   3      37.268  15.598  23.422  0.00  0.00    -0.297 N 
ATOM      4  H   VAL A   3      37.631  16.501  23.055  0.00  0.00    +0.150 HD
ENDROOT
BRANCH   1   5
ATOM      5  CA  GLY A   2      39.582  14.970  23.795  0.00  0.00    +0.176 C 
BRANCH   5   8
ATOM      6  C   ASN A   1      40.657  13.441  25.371  0.00  0.00    +0.239 C 
ATOM      7  O   ASN A   1      40.582  14.227  26.318  0.00  0.00    -0.274 OA
ATOM      8  N   GLY A   2      40.327  13.761  24.124  0.00  0.00    -0.296 N 
ATOM      9  H   GLY A   2      40.611  13.124  23.353  0.00  0.00    +0.150 HD
BRANCH   6  10
ATOM     10  CA  ASN A   1      41.161  12.018  25.564  0.00  0.00    +0.154 C 
BRANCH  10  11
ATOM     11  N   ASN A   1      42.172  11.854  26.604  0.00  0.00    -0.238 NA
ATOM     12  H   ASN A   1      42.007  12.240  27.556  0.00  0.00    +0.142 HD
ENDBRANCH  10  11
BRANCH  10  13
ATOM     13  CB  ASN A   1      39.983  11.033  25.756  0.00  0.00    +0.111 C 
BRANCH  13  14
ATOM     14  CG  ASN A   1      39.026  11.453  26.868  0.00  0.00    +0.221 C 
ATOM     15  OD1 ASN A   1      39.315  11.269  28.050  0.00  0.00    -0.275 OA
ATOM     16  ND2 ASN A   1      37.863  11.983  26.487  0.00  0.00    -0.329 N 
ATOM     17 HD21 ASN A   1      37.159  12.259  27.201  0.00  0.00    +0.145 HD
ATOM     18 HD22 ASN A   1      37.661  12.121  25.476  0.00  0.00    +0.145 HD
ENDBRANCH  13  14
ENDBRANCH  10  13
ENDBRANCH   6  10
ENDBRANCH   5   8
ENDBRANCH   1   5
BRANCH   3  19
ATOM     19  CA  VAL A   3      35.817  15.426  23.654  0.00  0.00    +0.149 C 
BRANCH  19  20
ATOM     20  C   VAL A   3      34.972  15.495  22.381  0.00  0.00    +0.241 C 
ATOM     21  O   VAL A   3      33.736  15.496  22.434  0.00  0.00    -0.273 OA
ATOM     22  N   ALA A   4      35.660  15.545  21.241  0.00  0.00    -0.298 N 
ATOM     23  H   ALA A   4      36.688  15.690  21.296  0.00  0.00    +0.150 HD
BRANCH  22  24
ATOM     24  CA  ALA A   4      35.052  15.408  19.914  0.00  0.00    +0.137 C 
ATOM     25  CB  ALA A   4      34.300  16.671  19.518  0.00  0.00    +0.030 C 
BRANCH  24  26
ATOM     26  C   ALA A   4      36.174  15.130  18.928  0.00  0.00    +0.227 C 
ATOM     27  O   ALA A   4      37.328  15.489  19.178  0.00  0.00    -0.286 OA
ENDBRANCH  24  26
ENDBRANCH  22  24
ENDBRANCH  19  20
BRANCH  19  28
ATOM     28  CB  VAL A   3      35.311  16.395  24.761  0.00  0.00    +0.027 C 
ATOM     29  CG2 VAL A   3      35.821  15.925  26.133  0.00  0.00    +0.002 C 
ATOM     30  CG1 VAL A   3      35.754  17.842  24.477  0.00  0.00    +0.002 C 
ENDBRANCH  19  28
ENDBRANCH   3  19
TORSDOF 11
REMARK  Name = ../refined-set-2016/3l7b/3l7b_pocket.pdb
REMARK  238 active torsions:
REMARK  status: ('A' for Active; 'I' for Inactive)
REMARK    1  A    between atoms: _1  and  _3
REMARK    2  A    between atoms: _3  and  _4
REMARK    3  A    between atoms: _3  and  _6
REMARK    4  A    between atoms: _6  and  _7
REMARK    5  A    between atoms: _12  and  _13
REMARK    6  A    between atoms: _15  and  _17
REMARK    7  A    between atoms: _17  and  _18
REMARK    8  A    between atoms: _17  and  _20
REMARK    9  A    between atoms: _20  and  _21
REMARK   10  A    between atoms: _21  and  _22
REMARK   11  A    between atoms: _25  and  _27
REMARK   12  A    between atoms: _27  and  _28
REMARK   13  A    between atoms: _27  and  _30
REMARK   14  A    between atoms: _30  and  _31
REMARK   15  A    between atoms: _36  and  _37
REMARK   16  A    between atoms: _39  and  _41
REMARK   17  A    between atoms: _41  and  _42
REMARK   18  A    between atoms: _41  and  _44
REMARK   19  A    between atoms: _44  and  _45
REMARK   20  A    between atoms: _50  and  _52
REMARK   21  A    between atoms: _52  and  _53
REMARK   22  A    between atoms: _55  and  _57
REMARK   23  A    between atoms: _57  and  _58
REMARK   24  A    between atoms: _60  and  _62
REMARK   25  A    between atoms: _62  and  _63
REMARK   26  A    between atoms: _62  and  _65
REMARK   27  A    between atoms: _65  and  _66
REMARK   28  A    between atoms: _69  and  _71
REMARK   29  A    between atoms: _71  and  _72
REMARK   30  A    between atoms: _74  and  _76
REMARK   31  A    between atoms: _76  and  _77
REMARK   32  A    between atoms: _76  and  _79
REMARK   33  A    between atoms: _80  and  _81
REMARK   34  A    between atoms: _81  and  _82
REMARK   35  A    between atoms: _91  and  _93
REMARK   36  A    between atoms: _93  and  _94
REMARK   37  A    between atoms: _93  and  _96
REMARK   38  A    between atoms: _96  and  _97
REMARK   39  A    between atoms: _100  and  _102
REMARK   40  A    between atoms: _102  and  _103
REMARK   41  A    between atoms: _106  and  _108
REMARK   42  A    between atoms: _108  and  _109
REMARK   43  A    between atoms: _108  and  _111
REMARK   44  A    between atoms: _111  and  _112
REMARK   45  A    between atoms: _118  and  _120
REMARK   46  A    between atoms: _120  and  _121
REMARK   47  A    between atoms: _120  and  _123
REMARK   48  A    between atoms: _123  and  _124
REMARK   49  A    between atoms: _129  and  _131
REMARK   50  A    between atoms: _131  and  _132
REMARK   51  A    between atoms: _131  and  _134
REMARK   52  A    between atoms: _134  and  _135
REMARK   53  A    between atoms: _138  and  _140
REMARK   54  A    between atoms: _140  and  _141
REMARK   55  A    between atoms: _140  and  _143
REMARK   56  A    between atoms: _143  and  _144
REMARK   57  A    between atoms: _149  and  _151
REMARK   58  A    between atoms: _151  and  _152
REMARK   59  A    between atoms: _151  and  _154
REMARK   60  A    between atoms: _154  and  _155
REMARK   61  A    between atoms: _161  and  _163
REMARK   62  A    between atoms: _163  and  _164
REMARK   63  A    between atoms: _163  and  _166
REMARK   64  A    between atoms: _166  and  _167
REMARK   65  A    between atoms: _173  and  _175
REMARK   66  A    between atoms: _175  and  _176
REMARK   67  A    between atoms: _175  and  _178
REMARK   68  A    between atoms: _178  and  _179
REMARK   69  A    between atoms: _179  and  _180
REMARK   70  A    between atoms: _180  and  _181
REMARK   71  A    between atoms: _190  and  _192
REMARK   72  A    between atoms: _192  and  _193
REMARK   73  A    between atoms: _192  and  _195
REMARK   74  A    between atoms: _195  and  _196
REMARK   75  A    between atoms: _201  and  _203
REMARK   76  A    between atoms: _203  and  _204
REMARK   77  A    between atoms: _203  and  _206
REMARK   78  A    between atoms: _206  and  _207
REMARK   79  A    between atoms: _210  and  _212
REMARK   80  A    between atoms: _212  and  _213
REMARK   81  A    between atoms: _212  and  _215
REMARK   82  A    between atoms: _215  and  _216
REMARK   83  A    between atoms: _219  and  _221
REMARK   84  A    between atoms: _221  and  _222
REMARK   85  A    between atoms: _221  and  _224
REMARK   86  A    between atoms: _224  and  _225
REMARK   87  A    between atoms: _230  and  _232
REMARK   88  A    between atoms: _232  and  _233
REMARK   89  A    between atoms: _232  and  _235
REMARK   90  A    between atoms: _235  and  _236
REMARK   91  A    between atoms: _239  and  _241
REMARK   92  A    between atoms: _241  and  _242
REMARK   93  A    between atoms: _241  and  _244
REMARK   94  A    between atoms: _244  and  _245
REMARK   95  A    between atoms: _250  and  _252
REMARK   96  A    between atoms: _252  and  _253
REMARK   97  A    between atoms: _252  and  _255
REMARK   98  A    between atoms: _255  and  _256
REMARK   99  A    between atoms: _261  and  _263
REMARK  100  A    between atoms: _263  and  _264
REMARK  101  A    between atoms: _263  and  _266
REMARK  102  A    between atoms: _266  and  _267
REMARK  103  A    between atoms: _270  and  _272
REMARK  104  A    between atoms: _272  and  _273
REMARK  105  A    between atoms: _272  and  _275
REMARK  106  A    between atoms: _278  and  _280
REMARK  107  A    between atoms: _280  and  _281
REMARK  108  A    between atoms: _280  and  _283
REMARK  109  A    between atoms: _283  and  _284
REMARK  110  A    between atoms: _287  and  _289
REMARK  111  A    between atoms: _289  and  _290
REMARK  112  A    between atoms: _293  and  _295
REMARK  113  A    between atoms: _295  and  _296
REMARK  114  A    between atoms: _295  and  _298
REMARK  115  A    between atoms: _298  and  _299
REMARK  116  A    between atoms: _302  and  _304
REMARK  117  A    between atoms: _304  and  _305
REMARK  118  A    between atoms: _304  and  _307
REMARK  119  A    between atoms: _307  and  _308
REMARK  120  A    between atoms: _308  and  _309
REMARK  121  A    between atoms: _312  and  _314
REMARK  122  A    between atoms: _314  and  _315
REMARK  123  A    between atoms: _314  and  _317
REMARK  124  A    between atoms: _317  and  _318
REMARK  125  A    between atoms: _323  and  _325
REMARK  126  A    between atoms: _325  and  _326
REMARK  127  A    between atoms: _328  and  _330
REMARK  128  A    between atoms: _330  and  _331
REMARK  129  A    between atoms: _330  and  _333
REMARK  130  A    between atoms: _336  and  _338
REMARK  131  A    between atoms: _338  and  _339
REMARK  132  A    between atoms: _342  and  _344
REMARK  133  A    between atoms: _344  and  _345
REMARK  134  A    between atoms: _344  and  _347
REMARK  135  A    between atoms: _347  and  _348
REMARK  136  A    between atoms: _353  and  _355
REMARK  137  A    between atoms: _355  and  _356
REMARK  138  A    between atoms: _355  and  _358
REMARK  139  A    between atoms: _358  and  _359
REMARK  140  A    between atoms: _359  and  _360
REMARK  141  A    between atoms: _360  and  _361
REMARK  142  A    between atoms: _361  and  _362
REMARK  143  A    between atoms: _366  and  _368
REMARK  144  A    between atoms: _368  and  _369
REMARK  145  A    between atoms: _368  and  _371
REMARK  146  A    between atoms: _371  and  _372
REMARK  147  A    between atoms: _377  and  _379
REMARK  148  A    between atoms: _379  and  _380
REMARK  149  A    between atoms: _382  and  _384
REMARK  150  A    between atoms: _384  and  _385
REMARK  151  A    between atoms: _384  and  _387
REMARK  152  A    between atoms: _387  and  _388
REMARK  153  A    between atoms: _391  and  _393
REMARK  154  A    between atoms: _393  and  _394
REMARK  155  A    between atoms: _393  and  _396
REMARK  156  A    between atoms: _396  and  _397
REMARK  157  A    between atoms: _397  and  _398
REMARK  158  A    between atoms: _398  and  _399
REMARK  159  A    between atoms: _399  and  _400
REMARK  160  A    between atoms: _404  and  _406
REMARK  161  A    between atoms: _406  and  _407
REMARK  162  A    between atoms: _406  and  _409
REMARK  163  A    between atoms: _409  and  _410
REMARK  164  A    between atoms: _410  and  _411
REMARK  165  A    between atoms: _411  and  _412
REMARK  166  A    between atoms: _421  and  _423
REMARK  167  A    between atoms: _423  and  _424
REMARK  168  A    between atoms: _423  and  _426
REMARK  169  A    between atoms: _426  and  _427
REMARK  170  A    between atoms: _432  and  _433
REMARK  171  A    between atoms: _435  and  _437
REMARK  172  A    between atoms: _437  and  _438
REMARK  173  A    between atoms: _437  and  _440
REMARK  174  A    between atoms: _440  and  _441
REMARK  175  A    between atoms: _441  and  _442
REMARK  176  A    between atoms: _442  and  _443
REMARK  177  A    between atoms: _443  and  _444
REMARK  178  A    between atoms: _448  and  _450
REMARK  179  A    between atoms: _450  and  _451
REMARK  180  A    between atoms: _450  and  _453
REMARK  181  A    between atoms: _453  and  _454
REMARK  182  A    between atoms: _456  and  _458
REMARK  183  A    between atoms: _458  and  _459
REMARK  184  A    between atoms: _458  and  _461
REMARK  185  A    between atoms: _461  and  _462
REMARK  186  A    between atoms: _465  and  _467
REMARK  187  A    between atoms: _467  and  _468
REMARK  188  A    between atoms: _467  and  _470
REMARK  189  A    between atoms: _470  and  _471
REMARK  190  A    between atoms: _471  and  _472
REMARK  191  A    between atoms: _475  and  _477
REMARK  192  A    between atoms: _477  and  _478
REMARK  193  A    between atoms: _481  and  _483
REMARK  194  A    between atoms: _483  and  _484
REMARK  195  A    between atoms: _483  and  _486
REMARK  196  A    between atoms: _486  and  _487
REMARK  197  A    between atoms: _489  and  _491
REMARK  198  A    between atoms: _491  and  _492
REMARK  199  A    between atoms: _494  and  _496
REMARK  200  A    between atoms: _496  and  _497
REMARK  201  A    between atoms: _496  and  _499
REMARK  202  A    between atoms: _499  and  _500
REMARK  203  A    between atoms: _503  and  _505
REMARK  204  A    between atoms: _505  and  _506
REMARK  205  A    between atoms: _508  and  _510
REMARK  206  A    between atoms: _510  and  _511
REMARK  207  A    between atoms: _510  and  _513
REMARK  208  A    between atoms: _513  and  _514
REMARK  209  A    between atoms: _519  and  _521
REMARK  210  A    between atoms: _521  and  _522
REMARK  211  A    between atoms: _521  and  _524
REMARK  212  A    between atoms: _524  and  _525
REMARK  213  A    between atoms: _525  and  _526
REMARK  214  A    between atoms: _533  and  _534
REMARK  215  A    between atoms: _534  and  _550
REMARK  216  A    between atoms: _535  and  _537
REMARK  217  A    between atoms: _537  and  _538
REMARK  218  A    between atoms: _538  and  _539
REMARK  219  A    between atoms: _543  and  _545
REMARK  220  A    between atoms: _545  and  _546
REMARK  221  A    between atoms: _545  and  _553
REMARK  222  A    between atoms: _546  and  _547
REMARK  223  A    between atoms: _547  and  _548
REMARK  224  A    between atoms: _548  and  _549
REMARK  225  A    between atoms: _549  and  _550
REMARK  226  A    between atoms: _555  and  _557
REMARK  227  A    between atoms: _557  and  _558
REMARK  228  A    between atoms: _557  and  _560
REMARK  229  A    between atoms: _560  and  _561
REMARK  230  A    between atoms: _564  and  _566
REMARK  231  A    between atoms: _566  and  _567
REMARK  232  A    between atoms: _569  and  _571
REMARK  233  A    between atoms: _571  and  _572
REMARK  234  A    between atoms: _575  and  _577
REMARK  235  A    between atoms: _577  and  _578
REMARK  236  A    between atoms: _577  and  _580
REMARK  237  A    between atoms: _580  and  _581
REMARK  238  A    between atoms: _586  and  _587
REMARK                            x       y       z     vdW  Elec       q    Type
REMARK                         _______ _______ _______ _____ _____    ______ ____
ROOT
ATOM      1  CB  HIS A   1      38.349  18.610  20.270  0.00  0.00    +0.072 C 
ENDROOT
BRANCH   1   2
ATOM      2  CG  HIS A   1      39.023  18.804  21.599  0.00  0.00    +0.082 A 
ATOM      3  CD2 HIS A   1      38.924  18.100  22.749  0.00  0.00    +0.115 A 
ATOM      4  NE2 HIS A   1      39.736  18.710  23.673  0.00  0.00    -0.221 NA
ATOM      5  CE1 HIS A   1      40.299  19.768  23.118  0.00  0.00    +0.199 A 
ATOM      6  ND1 HIS A   1      39.872  19.857  21.870  0.00  0.00    -0.227 NA
ENDBRANCH   1   2
BRANCH   1   7
ATOM      7  CA  HIS A   1      39.311  18.417  19.080  0.00  0.00    +0.139 C 
BRANCH   7   8
ATOM      8  N   HIS A   1      38.572  17.943  17.911  0.00  0.00    -0.239 NA
ATOM      9  H   HIS A   1      37.600  17.600  18.051  0.00  0.00    +0.142 HD
ENDBRANCH   7   8
BRANCH   7  10
ATOM     10  C   HIS A   1      40.431  17.424  19.394  0.00  0.00    +0.224 C 
ATOM     11  O   HIS A   1      41.579  17.820  19.572  0.00  0.00    -0.287 OA
ENDBRANCH   7  10
ENDBRANCH   1   7
TORSDOF 4
REMARK  Name = ../refined-set-2016/3l7b/3l7b_pocket.pdb
REMARK  238 active torsions:
REMARK  status: ('A' for Active; 'I' for Inactive)
REMARK    1  A    between atoms: _1  and  _3
REMARK    2  A    between atoms: _3  and  _4
REMARK    3  A    between atoms: _3  and  _6
REMARK    4  A    between atoms: _6  and  _7
REMARK    5  A    between atoms: _12  and  _13
REMARK    6  A    between atoms: _15  and  _17
REMARK    7  A    between atoms: _17  and  _18
REMARK    8  A    between atoms: _17  and  _20
REMARK    9  A    between atoms: _20  and  _21
REMARK   10  A    between atoms: _21  and  _22
REMARK   11  A    between atoms: _25  and  _27
REMARK   12  A    between atoms: _27  and  _28
REMARK   13  A    between atoms: _27  and  _30
REMARK   14  A    between atoms: _30  and  _31
REMARK   15  A    between atoms: _36  and  _37
REMARK   16  A    between atoms: _39  and  _41
REMARK   17  A    between atoms: _41  and  _42
REMARK   18  A    between atoms: _41  and  _44
REMARK   19  A    between atoms: _44  and  _45
REMARK   20  A    between atoms: _50  and  _52
REMARK   21  A    between atoms: _52  and  _53
REMARK   22  A    between atoms: _55  and  _57
REMARK   23  A    between atoms: _57  and  _58
REMARK   24  A    between atoms: _60  and  _62
REMARK   25  A    between atoms: _62  and  _63
REMARK   26  A    between atoms: _62  and  _65
REMARK   27  A    between atoms: _65  and  _66
REMARK   28  A    between atoms: _69  and  _71
REMARK   29  A    between atoms: _71  and  _72
REMARK   30  A    between atoms: _74  and  _76
REMARK   31  A    between atoms: _76  and  _77
REMARK   32  A    between atoms: _76  and  _79
REMARK   33  A    between atoms: _80  and  _81
REMARK   34  A    between atoms: _81  and  _82
REMARK   35  A    between atoms: _91  and  _93
REMARK   36  A    between atoms: _93  and  _94
REMARK   37  A    between atoms: _93  and  _96
REMARK   38  A    between atoms: _96  and  _97
REMARK   39  A    between atoms: _100  and  _102
REMARK   40  A    between atoms: _102  and  _103
REMARK   41  A    between atoms: _106  and  _108
REMARK   42  A    between atoms: _108  and  _109
REMARK   43  A    between atoms: _108  and  _111
REMARK   44  A    between atoms: _111  and  _112
REMARK   45  A    between atoms: _118  and  _120
REMARK   46  A    between atoms: _120  and  _121
REMARK   47  A    between atoms: _120  and  _123
REMARK   48  A    between atoms: _123  and  _124
REMARK   49  A    between atoms: _129  and  _131
REMARK   50  A    between atoms: _131  and  _132
REMARK   51  A    between atoms: _131  and  _134
REMARK   52  A    between atoms: _134  and  _135
REMARK   53  A    between atoms: _138  and  _140
REMARK   54  A    between atoms: _140  and  _141
REMARK   55  A    between atoms: _140  and  _143
REMARK   56  A    between atoms: _143  and  _144
REMARK   57  A    between atoms: _149  and  _151
REMARK   58  A    between atoms: _151  and  _152
REMARK   59  A    between atoms: _151  and  _154
REMARK   60  A    between atoms: _154  and  _155
REMARK   61  A    between atoms: _161  and  _163
REMARK   62  A    between atoms: _163  and  _164
REMARK   63  A    between atoms: _163  and  _166
REMARK   64  A    between atoms: _166  and  _167
REMARK   65  A    between atoms: _173  and  _175
REMARK   66  A    between atoms: _175  and  _176
REMARK   67  A    between atoms: _175  and  _178
REMARK   68  A    between atoms: _178  and  _179
REMARK   69  A    between atoms: _179  and  _180
REMARK   70  A    between atoms: _180  and  _181
REMARK   71  A    between atoms: _190  and  _192
REMARK   72  A    between atoms: _192  and  _193
REMARK   73  A    between atoms: _192  and  _195
REMARK   74  A    between atoms: _195  and  _196
REMARK   75  A    between atoms: _201  and  _203
REMARK   76  A    between atoms: _203  and  _204
REMARK   77  A    between atoms: _203  and  _206
REMARK   78  A    between atoms: _206  and  _207
REMARK   79  A    between atoms: _210  and  _212
REMARK   80  A    between atoms: _212  and  _213
REMARK   81  A    between atoms: _212  and  _215
REMARK   82  A    between atoms: _215  and  _216
REMARK   83  A    between atoms: _219  and  _221
REMARK   84  A    between atoms: _221  and  _222
REMARK   85  A    between atoms: _221  and  _224
REMARK   86  A    between atoms: _224  and  _225
REMARK   87  A    between atoms: _230  and  _232
REMARK   88  A    between atoms: _232  and  _233
REMARK   89  A    between atoms: _232  and  _235
REMARK   90  A    between atoms: _235  and  _236
REMARK   91  A    between atoms: _239  and  _241
REMARK   92  A    between atoms: _241  and  _242
REMARK   93  A    between atoms: _241  and  _244
REMARK   94  A    between atoms: _244  and  _245
REMARK   95  A    between atoms: _250  and  _252
REMARK   96  A    between atoms: _252  and  _253
REMARK   97  A    between atoms: _252  and  _255
REMARK   98  A    between atoms: _255  and  _256
REMARK   99  A    between atoms: _261  and  _263
REMARK  100  A    between atoms: _263  and  _264
REMARK  101  A    between atoms: _263  and  _266
REMARK  102  A    between atoms: _266  and  _267
REMARK  103  A    between atoms: _270  and  _272
REMARK  104  A    between atoms: _272  and  _273
REMARK  105  A    between atoms: _272  and  _275
REMARK  106  A    between atoms: _278  and  _280
REMARK  107  A    between atoms: _280  and  _281
REMARK  108  A    between atoms: _280  and  _283
REMARK  109  A    between atoms: _283  and  _284
REMARK  110  A    between atoms: _287  and  _289
REMARK  111  A    between atoms: _289  and  _290
REMARK  112  A    between atoms: _293  and  _295
REMARK  113  A    between atoms: _295  and  _296
REMARK  114  A    between atoms: _295  and  _298
REMARK  115  A    between atoms: _298  and  _299
REMARK  116  A    between atoms: _302  and  _304
REMARK  117  A    between atoms: _304  and  _305
REMARK  118  A    between atoms: _304  and  _307
REMARK  119  A    between atoms: _307  and  _308
REMARK  120  A    between atoms: _308  and  _309
REMARK  121  A    between atoms: _312  and  _314
REMARK  122  A    between atoms: _314  and  _315
REMARK  123  A    between atoms: _314  and  _317
REMARK  124  A    between atoms: _317  and  _318
REMARK  125  A    between atoms: _323  and  _325
REMARK  126  A    between atoms: _325  and  _326
REMARK  127  A    between atoms: _328  and  _330
REMARK  128  A    between atoms: _330  and  _331
REMARK  129  A    between atoms: _330  and  _333
REMARK  130  A    between atoms: _336  and  _338
REMARK  131  A    between atoms: _338  and  _339
REMARK  132  A    between atoms: _342  and  _344
REMARK  133  A    between atoms: _344  and  _345
REMARK  134  A    between atoms: _344  and  _347
REMARK  135  A    between atoms: _347  and  _348
REMARK  136  A    between atoms: _353  and  _355
REMARK  137  A    between atoms: _355  and  _356
REMARK  138  A    between atoms: _355  and  _358
REMARK  139  A    between atoms: _358  and  _359
REMARK  140  A    between atoms: _359  and  _360
REMARK  141  A    between atoms: _360  and  _361
REMARK  142  A    between atoms: _361  and  _362
REMARK  143  A    between atoms: _366  and  _368
REMARK  144  A    between atoms: _368  and  _369
REMARK  145  A    between atoms: _368  and  _371
REMARK  146  A    between atoms: _371  and  _372
REMARK  147  A    between atoms: _377  and  _379
REMARK  148  A    between atoms: _379  and  _380
REMARK  149  A    between atoms: _382  and  _384
REMARK  150  A    between atoms: _384  and  _385
REMARK  151  A    between atoms: _384  and  _387
REMARK  152  A    between atoms: _387  and  _388
REMARK  153  A    between atoms: _391  and  _393
REMARK  154  A    between atoms: _393  and  _394
REMARK  155  A    between atoms: _393  and  _396
REMARK  156  A    between atoms: _396  and  _397
REMARK  157  A    between atoms: _397  and  _398
REMARK  158  A    between atoms: _398  and  _399
REMARK  159  A    between atoms: _399  and  _400
REMARK  160  A    between atoms: _404  and  _406
REMARK  161  A    between atoms: _406  and  _407
REMARK  162  A    between atoms: _406  and  _409
REMARK  163  A    between atoms: _409  and  _410
REMARK  164  A    between atoms: _410  and  _411
REMARK  165  A    between atoms: _411  and  _412
REMARK  166  A    between atoms: _421  and  _423
REMARK  167  A    between atoms: _423  and  _424
REMARK  168  A    between atoms: _423  and  _426
REMARK  169  A    between atoms: _426  and  _427
REMARK  170  A    between atoms: _432  and  _433
REMARK  171  A    between atoms: _435  and  _437
REMARK  172  A    between atoms: _437  and  _438
REMARK  173  A    between atoms: _437  and  _440
REMARK  174  A    between atoms: _440  and  _441
REMARK  175  A    between atoms: _441  and  _442
REMARK  176  A    between atoms: _442  and  _443
REMARK  177  A    between atoms: _443  and  _444
REMARK  178  A    between atoms: _448  and  _450
REMARK  179  A    between atoms: _450  and  _451
REMARK  180  A    between atoms: _450  and  _453
REMARK  181  A    between atoms: _453  and  _454
REMARK  182  A    between atoms: _456  and  _458
REMARK  183  A    between atoms: _458  and  _459
REMARK  184  A    between atoms: _458  and  _461
REMARK  185  A    between atoms: _461  and  _462
REMARK  186  A    between atoms: _465  and  _467
REMARK  187  A    between atoms: _467  and  _468
REMARK  188  A    between atoms: _467  and  _470
REMARK  189  A    between atoms: _470  and  _471
REMARK  190  A    between atoms: _471  and  _472
REMARK  191  A    between atoms: _475  and  _477
REMARK  192  A    between atoms: _477  and  _478
REMARK  193  A    between atoms: _481  and  _483
REMARK  194  A    between atoms: _483  and  _484
REMARK  195  A    between atoms: _483  and  _486
REMARK  196  A    between atoms: _486  and  _487
REMARK  197  A    between atoms: _489  and  _491
REMARK  198  A    between atoms: _491  and  _492
REMARK  199  A    between atoms: _494  and  _496
REMARK  200  A    between atoms: _496  and  _497
REMARK  201  A    between atoms: _496  and  _499
REMARK  202  A    between atoms: _499  and  _500
REMARK  203  A    between atoms: _503  and  _505
REMARK  204  A    between atoms: _505  and  _506
REMARK  205  A    between atoms: _508  and  _510
REMARK  206  A    between atoms: _510  and  _511
REMARK  207  A    between atoms: _510  and  _513
REMARK  208  A    between atoms: _513  and  _514
REMARK  209  A    between atoms: _519  and  _521
REMARK  210  A    between atoms: _521  and  _522
REMARK  211  A    between atoms: _521  and  _524
REMARK  212  A    between atoms: _524  and  _525
REMARK  213  A    between atoms: _525  and  _526
REMARK  214  A    between atoms: _533  and  _534
REMARK  215  A    between atoms: _534  and  _550
REMARK  216  A    between atoms: _535  and  _537
REMARK  217  A    between atoms: _537  and  _538
REMARK  218  A    between atoms: _538  and  _539
REMARK  219  A    between atoms: _543  and  _545
REMARK  220  A    between atoms: _545  and  _546
REMARK  221  A    between atoms: _545  and  _553
REMARK  222  A    between atoms: _546  and  _547
REMARK  223  A    between atoms: _547  and  _548
REMARK  224  A    between atoms: _548  and  _549
REMARK  225  A    between atoms: _549  and  _550
REMARK  226  A    between atoms: _555  and  _557
REMARK  227  A    between atoms: _557  and  _558
REMARK  228  A    between atoms: _557  and  _560
REMARK  229  A    between atoms: _560  and  _561
REMARK  230  A    between atoms: _564  and  _566
REMARK  231  A    between atoms: _566  and  _567
REMARK  232  A    between atoms: _569  and  _571
REMARK  233  A    between atoms: _571  and  _572
REMARK  234  A    between atoms: _575  and  _577
REMARK  235  A    between atoms: _577  and  _578
REMARK  236  A    between atoms: _577  and  _580
REMARK  237  A    between atoms: _580  and  _581
REMARK  238  A    between atoms: _586  and  _587
REMARK                            x       y       z     vdW  Elec       q    Type
REMARK                         _______ _______ _______ _____ _____    ______ ____
ROOT
ATOM      1  CG  LYS A   1      36.476   8.688  25.203  0.00  0.00    -0.000 C 
ENDROOT
BRANCH   1   2
ATOM      2  CB  LYS A   1      35.544   9.844  24.836  0.00  0.00    +0.025 C 
BRANCH   2   3
ATOM      3  CA  LYS A   1      35.501  10.187  23.333  0.00  0.00    +0.133 C 
BRANCH   3   4
ATOM      4  N   LYS A   1      36.821  10.609  22.836  0.00  0.00    -0.239 NA
ATOM      5  H   LYS A   1      37.157  11.568  23.058  0.00  0.00    +0.142 HD
ENDBRANCH   3   4
BRANCH   3   6
ATOM      6  C   LYS A   1      34.529  11.330  23.096  0.00  0.00    +0.224 C 
ATOM      7  O   LYS A   1      34.440  12.248  23.903  0.00  0.00    -0.287 OA
ENDBRANCH   3   6
ENDBRANCH   2   3
ENDBRANCH   1   2
BRANCH   1   8
ATOM      8  CD  LYS A   1      35.926   7.334  24.730  0.00  0.00    -0.024 C 
BRANCH   8   9
ATOM      9  CE  LYS A   1      36.974   6.234  24.865  0.00  0.00    -0.086 C 
BRANCH   9  10
ATOM     10  NZ  LYS A   1      37.853   6.169  23.660  0.00  0.00    +0.380 N 
ATOM     11  HZ1 LYS A   1      38.554   5.411  23.784  0.00  0.00    -0.089 HD
ATOM     12  HZ2 LYS A   1      38.342   7.079  23.540  0.00  0.00    -0.089 HD
ATOM     13  HZ3 LYS A   1      37.273   5.972  22.820  0.00  0.00    -0.089 HD
ENDBRANCH   9  10
ENDBRANCH   8   9
ENDBRANCH   1   8
TORSDOF 7
REMARK  Name = ../refined-set-2016/3l7b/3l7b_pocket.pdb
REMARK  238 active torsions:
REMARK  status: ('A' for Active; 'I' for Inactive)
REMARK    1  A    between atoms: _1  and  _3
REMARK    2  A    between atoms: _3  and  _4
REMARK    3  A    between atoms: _3  and  _6
REMARK    4  A    between atoms: _6  and  _7
REMARK    5  A    between atoms: _12  and  _13
REMARK    6  A    between atoms: _15  and  _17
REMARK    7  A    between atoms: _17  and  _18
REMARK    8  A    between atoms: _17  and  _20
REMARK    9  A    between atoms: _20  and  _21
REMARK   10  A    between atoms: _21  and  _22
REMARK   11  A    between atoms: _25  and  _27
REMARK   12  A    between atoms: _27  and  _28
REMARK   13  A    between atoms: _27  and  _30
REMARK   14  A    between atoms: _30  and  _31
REMARK   15  A    between atoms: _36  and  _37
REMARK   16  A    between atoms: _39  and  _41
REMARK   17  A    between atoms: _41  and  _42
REMARK   18  A    between atoms: _41  and  _44
REMARK   19  A    between atoms: _44  and  _45
REMARK   20  A    between atoms: _50  and  _52
REMARK   21  A    between atoms: _52  and  _53
REMARK   22  A    between atoms: _55  and  _57
REMARK   23  A    between atoms: _57  and  _58
REMARK   24  A    between atoms: _60  and  _62
REMARK   25  A    between atoms: _62  and  _63
REMARK   26  A    between atoms: _62  and  _65
REMARK   27  A    between atoms: _65  and  _66
REMARK   28  A    between atoms: _69  and  _71
REMARK   29  A    between atoms: _71  and  _72
REMARK   30  A    between atoms: _74  and  _76
REMARK   31  A    between atoms: _76  and  _77
REMARK   32  A    between atoms: _76  and  _79
REMARK   33  A    between atoms: _80  and  _81
REMARK   34  A    between atoms: _81  and  _82
REMARK   35  A    between atoms: _91  and  _93
REMARK   36  A    between atoms: _93  and  _94
REMARK   37  A    between atoms: _93  and  _96
REMARK   38  A    between atoms: _96  and  _97
REMARK   39  A    between atoms: _100  and  _102
REMARK   40  A    between atoms: _102  and  _103
REMARK   41  A    between atoms: _106  and  _108
REMARK   42  A    between atoms: _108  and  _109
REMARK   43  A    between atoms: _108  and  _111
REMARK   44  A    between atoms: _111  and  _112
REMARK   45  A    between atoms: _118  and  _120
REMARK   46  A    between atoms: _120  and  _121
REMARK   47  A    between atoms: _120  and  _123
REMARK   48  A    between atoms: _123  and  _124
REMARK   49  A    between atoms: _129  and  _131
REMARK   50  A    between atoms: _131  and  _132
REMARK   51  A    between atoms: _131  and  _134
REMARK   52  A    between atoms: _134  and  _135
REMARK   53  A    between atoms: _138  and  _140
REMARK   54  A    between atoms: _140  and  _141
REMARK   55  A    between atoms: _140  and  _143
REMARK   56  A    between atoms: _143  and  _144
REMARK   57  A    between atoms: _149  and  _151
REMARK   58  A    between atoms: _151  and  _152
REMARK   59  A    between atoms: _151  and  _154
REMARK   60  A    between atoms: _154  and  _155
REMARK   61  A    between atoms: _161  and  _163
REMARK   62  A    between atoms: _163  and  _164
REMARK   63  A    between atoms: _163  and  _166
REMARK   64  A    between atoms: _166  and  _167
REMARK   65  A    between atoms: _173  and  _175
REMARK   66  A    between atoms: _175  and  _176
REMARK   67  A    between atoms: _175  and  _178
REMARK   68  A    between atoms: _178  and  _179
REMARK   69  A    between atoms: _179  and  _180
REMARK   70  A    between atoms: _180  and  _181
REMARK   71  A    between atoms: _190  and  _192
REMARK   72  A    between atoms: _192  and  _193
REMARK   73  A    between atoms: _192  and  _195
REMARK   74  A    between atoms: _195  and  _196
REMARK   75  A    between atoms: _201  and  _203
REMARK   76  A    between atoms: _203  and  _204
REMARK   77  A    between atoms: _203  and  _206
REMARK   78  A    between atoms: _206  and  _207
REMARK   79  A    between atoms: _210  and  _212
REMARK   80  A    between atoms: _212  and  _213
REMARK   81  A    between atoms: _212  and  _215
REMARK   82  A    between atoms: _215  and  _216
REMARK   83  A    between atoms: _219  and  _221
REMARK   84  A    between atoms: _221  and  _222
REMARK   85  A    between atoms: _221  and  _224
REMARK   86  A    between atoms: _224  and  _225
REMARK   87  A    between atoms: _230  and  _232
REMARK   88  A    between atoms: _232  and  _233
REMARK   89  A    between atoms: _232  and  _235
REMARK   90  A    between atoms: _235  and  _236
REMARK   91  A    between atoms: _239  and  _241
REMARK   92  A    between atoms: _241  and  _242
REMARK   93  A    between atoms: _241  and  _244
REMARK   94  A    between atoms: _244  and  _245
REMARK   95  A    between atoms: _250  and  _252
REMARK   96  A    between atoms: _252  and  _253
REMARK   97  A    between atoms: _252  and  _255
REMARK   98  A    between atoms: _255  and  _256
REMARK   99  A    between atoms: _261  and  _263
REMARK  100  A    between atoms: _263  and  _264
REMARK  101  A    between atoms: _263  and  _266
REMARK  102  A    between atoms: _266  and  _267
REMARK  103  A    between atoms: _270  and  _272
REMARK  104  A    between atoms: _272  and  _273
REMARK  105  A    between atoms: _272  and  _275
REMARK  106  A    between atoms: _278  and  _280
REMARK  107  A    between atoms: _280  and  _281
REMARK  108  A    between atoms: _280  and  _283
REMARK  109  A    between atoms: _283  and  _284
REMARK  110  A    between atoms: _287  and  _289
REMARK  111  A    between atoms: _289  and  _290
REMARK  112  A    between atoms: _293  and  _295
REMARK  113  A    between atoms: _295  and  _296
REMARK  114  A    between atoms: _295  and  _298
REMARK  115  A    between atoms: _298  and  _299
REMARK  116  A    between atoms: _302  and  _304
REMARK  117  A    between atoms: _304  and  _305
REMARK  118  A    between atoms: _304  and  _307
REMARK  119  A    between atoms: _307  and  _308
REMARK  120  A    between atoms: _308  and  _309
REMARK  121  A    between atoms: _312  and  _314
REMARK  122  A    between atoms: _314  and  _315
REMARK  123  A    between atoms: _314  and  _317
REMARK  124  A    between atoms: _317  and  _318
REMARK  125  A    between atoms: _323  and  _325
REMARK  126  A    between atoms: _325  and  _326
REMARK  127  A    between atoms: _328  and  _330
REMARK  128  A    between atoms: _330  and  _331
REMARK  129  A    between atoms: _330  and  _333
REMARK  130  A    between atoms: _336  and  _338
REMARK  131  A    between atoms: _338  and  _339
REMARK  132  A    between atoms: _342  and  _344
REMARK  133  A    between atoms: _344  and  _345
REMARK  134  A    between atoms: _344  and  _347
REMARK  135  A    between atoms: _347  and  _348
REMARK  136  A    between atoms: _353  and  _355
REMARK  137  A    between atoms: _355  and  _356
REMARK  138  A    between atoms: _355  and  _358
REMARK  139  A    between atoms: _358  and  _359
REMARK  140  A    between atoms: _359  and  _360
REMARK  141  A    between atoms: _360  and  _361
REMARK  142  A    between atoms: _361  and  _362
REMARK  143  A    between atoms: _366  and  _368
REMARK  144  A    between atoms: _368  and  _369
REMARK  145  A    between atoms: _368  and  _371
REMARK  146  A    between atoms: _371  and  _372
REMARK  147  A    between atoms: _377  and  _379
REMARK  148  A    between atoms: _379  and  _380
REMARK  149  A    between atoms: _382  and  _384
REMARK  150  A    between atoms: _384  and  _385
REMARK  151  A    between atoms: _384  and  _387
REMARK  152  A    between atoms: _387  and  _388
REMARK  153  A    between atoms: _391  and  _393
REMARK  154  A    between atoms: _393  and  _394
REMARK  155  A    between atoms: _393  and  _396
REMARK  156  A    between atoms: _396  and  _397
REMARK  157  A    between atoms: _397  and  _398
REMARK  158  A    between atoms: _398  and  _399
REMARK  159  A    between atoms: _399  and  _400
REMARK  160  A    between atoms: _404  and  _406
REMARK  161  A    between atoms: _406  and  _407
REMARK  162  A    between atoms: _406  and  _409
REMARK  163  A    between atoms: _409  and  _410
REMARK  164  A    between atoms: _410  and  _411
REMARK  165  A    between atoms: _411  and  _412
REMARK  166  A    between atoms: _421  and  _423
REMARK  167  A    between atoms: _423  and  _424
REMARK  168  A    between atoms: _423  and  _426
REMARK  169  A    between atoms: _426  and  _427
REMARK  170  A    between atoms: _432  and  _433
REMARK  171  A    between atoms: _435  and  _437
REMARK  172  A    between atoms: _437  and  _438
REMARK  173  A    between atoms: _437  and  _440
REMARK  174  A    between atoms: _440  and  _441
REMARK  175  A    between atoms: _441  and  _442
REMARK  176  A    between atoms: _442  and  _443
REMARK  177  A    between atoms: _443  and  _444
REMARK  178  A    between atoms: _448  and  _450
REMARK  179  A    between atoms: _450  and  _451
REMARK  180  A    between atoms: _450  and  _453
REMARK  181  A    between atoms: _453  and  _454
REMARK  182  A    between atoms: _456  and  _458
REMARK  183  A    between atoms: _458  and  _459
REMARK  184  A    between atoms: _458  and  _461
REMARK  185  A    between atoms: _461  and  _462
REMARK  186  A    between atoms: _465  and  _467
REMARK  187  A    between atoms: _467  and  _468
REMARK  188  A    between atoms: _467  and  _470
REMARK  189  A    between atoms: _470  and  _471
REMARK  190  A    between atoms: _471  and  _472
REMARK  191  A    between atoms: _475  and  _477
REMARK  192  A    between atoms: _477  and  _478
REMARK  193  A    between atoms: _481  and  _483
REMARK  194  A    between atoms: _483  and  _484
REMARK  195  A    between atoms: _483  and  _486
REMARK  196  A    between atoms: _486  and  _487
REMARK  197  A    between atoms: _489  and  _491
REMARK  198  A    between atoms: _491  and  _492
REMARK  199  A    between atoms: _494  and  _496
REMARK  200  A    between atoms: _496  and  _497
REMARK  201  A    between atoms: _496  and  _499
REMARK  202  A    between atoms: _499  and  _500
REMARK  203  A    between atoms: _503  and  _505
REMARK  204  A    between atoms: _505  and  _506
REMARK  205  A    between atoms: _508  and  _510
REMARK  206  A    between atoms: _510  and  _511
REMARK  207  A    between atoms: _510  and  _513
REMARK  208  A    between atoms: _513  and  _514
REMARK  209  A    between atoms: _519  and  _521
REMARK  210  A    between atoms: _521  and  _522
REMARK  211  A    between atoms: _521  and  _524
REMARK  212  A    between atoms: _524  and  _525
REMARK  213  A    between atoms: _525  and  _526
REMARK  214  A    between atoms: _533  and  _534
REMARK  215  A    between atoms: _534  and  _550
REMARK  216  A    between atoms: _535  and  _537
REMARK  217  A    between atoms: _537  and  _538
REMARK  218  A    between atoms: _538  and  _539
REMARK  219  A    between atoms: _543  and  _545
REMARK  220  A    between atoms: _545  and  _546
REMARK  221  A    between atoms: _545  and  _553
REMARK  222  A    between atoms: _546  and  _547
REMARK  223  A    between atoms: _547  and  _548
REMARK  224  A    between atoms: _548  and  _549
REMARK  225  A    between atoms: _549  and  _550
REMARK  226  A    between atoms: _555  and  _557
REMARK  227  A    between atoms: _557  and  _558
REMARK  228  A    between atoms: _557  and  _560
REMARK  229  A    between atoms: _560  and  _561
REMARK  230  A    between atoms: _564  and  _566
REMARK  231  A    between atoms: _566  and  _567
REMARK  232  A    between atoms: _569  and  _571
REMARK  233  A    between atoms: _571  and  _572
REMARK  234  A    between atoms: _575  and  _577
REMARK  235  A    between atoms: _577  and  _578
REMARK  236  A    between atoms: _577  and  _580
REMARK  237  A    between atoms: _580  and  _581
REMARK  238  A    between atoms: _586  and  _587
REMARK                            x       y       z     vdW  Elec       q    Type
REMARK                         _______ _______ _______ _____ _____    ______ ____
ROOT
ATOM      1  C   ASN A   1      29.196  13.515  23.895  0.00  0.00    +0.239 C 
ATOM      2  N   GLY A   2      28.316  13.491  24.892  0.00  0.00    -0.296 N 
ATOM      3  H   GLY A   2      28.648  13.708  25.853  0.00  0.00    +0.150 HD
ATOM      4  O   ASN A   1      28.927  13.204  22.733  0.00  0.00    -0.274 OA
ENDROOT
BRANCH   1   5
ATOM      5  CA  ASN A   1      30.602  13.973  24.269  0.00  0.00    +0.154 C 
BRANCH   5   6
ATOM      6  N   ASN A   1      31.556  13.673  23.202  0.00  0.00    -0.238 NA
ATOM      7  H   ASN A   1      32.052  14.470  22.754  0.00  0.00    +0.142 HD
ENDBRANCH   5   6
BRANCH   5   8
ATOM      8  CB  ASN A   1      30.574  15.487  24.548  0.00  0.00    +0.111 C 
BRANCH   8   9
ATOM      9  CG  ASN A   1      31.723  15.956  25.472  0.00  0.00    +0.221 C 
ATOM     10  ND2 ASN A   1      32.422  15.012  26.080  0.00  0.00    -0.329 N 
ATOM     11 HD21 ASN A   1      33.190  15.272  26.732  0.00  0.00    +0.145 HD
ATOM     12 HD22 ASN A   1      32.204  14.010  25.906  0.00  0.00    +0.145 HD
ATOM     13  OD1 ASN A   1      31.946  17.175  25.647  0.00  0.00    -0.275 OA
ENDBRANCH   8   9
ENDBRANCH   5   8
ENDBRANCH   1   5
BRANCH   2  14
ATOM     14  CA  GLY A   2      26.906  13.174  24.696  0.00  0.00    +0.176 C 
BRANCH  14  15
ATOM     15  C   GLY A   2      26.088  13.804  25.810  0.00  0.00    +0.243 C 
ATOM     16  O   GLY A   2      26.644  14.427  26.721  0.00  0.00    -0.273 OA
ATOM     17  N   ILE A   3      24.767  13.653  25.735  0.00  0.00    -0.298 N 
ATOM     18  H   ILE A   3      24.373  13.153  24.913  0.00  0.00    +0.150 HD
BRANCH  17  19
ATOM     19  CA  ILE A   3      23.841  14.157  26.754  0.00  0.00    +0.137 C 
BRANCH  19  20
ATOM     20  C   ILE A   3      22.863  13.033  27.125  0.00  0.00    +0.227 C 
ATOM     21  O   ILE A   3      22.642  12.111  26.336  0.00  0.00    -0.286 OA
ENDBRANCH  19  20
BRANCH  19  22
ATOM     22  CB  ILE A   3      23.036  15.359  26.230  0.00  0.00    +0.026 C 
ATOM     23  CG2 ILE A   3      23.969  16.582  25.981  0.00  0.00    +0.002 C 
BRANCH  22  24
ATOM     24  CG1 ILE A   3      22.261  14.954  24.957  0.00  0.00    +0.002 C 
ATOM     25  CD1 ILE A   3      21.329  15.975  24.434  0.00  0.00    +0.000 C 
ENDBRANCH  22  24
ENDBRANCH  19  22
ENDBRANCH  17  19
ENDBRANCH  14  15
ENDBRANCH   2  14
TORSDOF 10
REMARK  Name = ../refined-set-2016/3l7b/3l7b_pocket.pdb
REMARK  238 active torsions:
REMARK  status: ('A' for Active; 'I' for Inactive)
REMARK    1  A    between atoms: _1  and  _3
REMARK    2  A    between atoms: _3  and  _4
REMARK    3  A    between atoms: _3  and  _6
REMARK    4  A    between atoms: _6  and  _7
REMARK    5  A    between atoms: _12  and  _13
REMARK    6  A    between atoms: _15  and  _17
REMARK    7  A    between atoms: _17  and  _18
REMARK    8  A    between atoms: _17  and  _20
REMARK    9  A    between atoms: _20  and  _21
REMARK   10  A    between atoms: _21  and  _22
REMARK   11  A    between atoms: _25  and  _27
REMARK   12  A    between atoms: _27  and  _28
REMARK   13  A    between atoms: _27  and  _30
REMARK   14  A    between atoms: _30  and  _31
REMARK   15  A    between atoms: _36  and  _37
REMARK   16  A    between atoms: _39  and  _41
REMARK   17  A    between atoms: _41  and  _42
REMARK   18  A    between atoms: _41  and  _44
REMARK   19  A    between atoms: _44  and  _45
REMARK   20  A    between atoms: _50  and  _52
REMARK   21  A    between atoms: _52  and  _53
REMARK   22  A    between atoms: _55  and  _57
REMARK   23  A    between atoms: _57  and  _58
REMARK   24  A    between atoms: _60  and  _62
REMARK   25  A    between atoms: _62  and  _63
REMARK   26  A    between atoms: _62  and  _65
REMARK   27  A    between atoms: _65  and  _66
REMARK   28  A    between atoms: _69  and  _71
REMARK   29  A    between atoms: _71  and  _72
REMARK   30  A    between atoms: _74  and  _76
REMARK   31  A    between atoms: _76  and  _77
REMARK   32  A    between atoms: _76  and  _79
REMARK   33  A    between atoms: _80  and  _81
REMARK   34  A    between atoms: _81  and  _82
REMARK   35  A    between atoms: _91  and  _93
REMARK   36  A    between atoms: _93  and  _94
REMARK   37  A    between atoms: _93  and  _96
REMARK   38  A    between atoms: _96  and  _97
REMARK   39  A    between atoms: _100  and  _102
REMARK   40  A    between atoms: _102  and  _103
REMARK   41  A    between atoms: _106  and  _108
REMARK   42  A    between atoms: _108  and  _109
REMARK   43  A    between atoms: _108  and  _111
REMARK   44  A    between atoms: _111  and  _112
REMARK   45  A    between atoms: _118  and  _120
REMARK   46  A    between atoms: _120  and  _121
REMARK   47  A    between atoms: _120  and  _123
REMARK   48  A    between atoms: _123  and  _124
REMARK   49  A    between atoms: _129  and  _131
REMARK   50  A    between atoms: _131  and  _132
REMARK   51  A    between atoms: _131  and  _134
REMARK   52  A    between atoms: _134  and  _135
REMARK   53  A    between atoms: _138  and  _140
REMARK   54  A    between atoms: _140  and  _141
REMARK   55  A    between atoms: _140  and  _143
REMARK   56  A    between atoms: _143  and  _144
REMARK   57  A    between atoms: _149  and  _151
REMARK   58  A    between atoms: _151  and  _152
REMARK   59  A    between atoms: _151  and  _154
REMARK   60  A    between atoms: _154  and  _155
REMARK   61  A    between atoms: _161  and  _163
REMARK   62  A    between atoms: _163  and  _164
REMARK   63  A    between atoms: _163  and  _166
REMARK   64  A    between atoms: _166  and  _167
REMARK   65  A    between atoms: _173  and  _175
REMARK   66  A    between atoms: _175  and  _176
REMARK   67  A    between atoms: _175  and  _178
REMARK   68  A    between atoms: _178  and  _179
REMARK   69  A    between atoms: _179  and  _180
REMARK   70  A    between atoms: _180  and  _181
REMARK   71  A    between atoms: _190  and  _192
REMARK   72  A    between atoms: _192  and  _193
REMARK   73  A    between atoms: _192  and  _195
REMARK   74  A    between atoms: _195  and  _196
REMARK   75  A    between atoms: _201  and  _203
REMARK   76  A    between atoms: _203  and  _204
REMARK   77  A    between atoms: _203  and  _206
REMARK   78  A    between atoms: _206  and  _207
REMARK   79  A    between atoms: _210  and  _212
REMARK   80  A    between atoms: _212  and  _213
REMARK   81  A    between atoms: _212  and  _215
REMARK   82  A    between atoms: _215  and  _216
REMARK   83  A    between atoms: _219  and  _221
REMARK   84  A    between atoms: _221  and  _222
REMARK   85  A    between atoms: _221  and  _224
REMARK   86  A    between atoms: _224  and  _225
REMARK   87  A    between atoms: _230  and  _232
REMARK   88  A    between atoms: _232  and  _233
REMARK   89  A    between atoms: _232  and  _235
REMARK   90  A    between atoms: _235  and  _236
REMARK   91  A    between atoms: _239  and  _241
REMARK   92  A    between atoms: _241  and  _242
REMARK   93  A    between atoms: _241  and  _244
REMARK   94  A    between atoms: _244  and  _245
REMARK   95  A    between atoms: _250  and  _252
REMARK   96  A    between atoms: _252  and  _253
REMARK   97  A    between atoms: _252  and  _255
REMARK   98  A    between atoms: _255  and  _256
REMARK   99  A    between atoms: _261  and  _263
REMARK  100  A    between atoms: _263  and  _264
REMARK  101  A    between atoms: _263  and  _266
REMARK  102  A    between atoms: _266  and  _267
REMARK  103  A    between atoms: _270  and  _272
REMARK  104  A    between atoms: _272  and  _273
REMARK  105  A    between atoms: _272  and  _275
REMARK  106  A    between atoms: _278  and  _280
REMARK  107  A    between atoms: _280  and  _281
REMARK  108  A    between atoms: _280  and  _283
REMARK  109  A    between atoms: _283  and  _284
REMARK  110  A    between atoms: _287  and  _289
REMARK  111  A    between atoms: _289  and  _290
REMARK  112  A    between atoms: _293  and  _295
REMARK  113  A    between atoms: _295  and  _296
REMARK  114  A    between atoms: _295  and  _298
REMARK  115  A    between atoms: _298  and  _299
REMARK  116  A    between atoms: _302  and  _304
REMARK  117  A    between atoms: _304  and  _305
REMARK  118  A    between atoms: _304  and  _307
REMARK  119  A    between atoms: _307  and  _308
REMARK  120  A    between atoms: _308  and  _309
REMARK  121  A    between atoms: _312  and  _314
REMARK  122  A    between atoms: _314  and  _315
REMARK  123  A    between atoms: _314  and  _317
REMARK  124  A    between atoms: _317  and  _318
REMARK  125  A    between atoms: _323  and  _325
REMARK  126  A    between atoms: _325  and  _326
REMARK  127  A    between atoms: _328  and  _330
REMARK  128  A    between atoms: _330  and  _331
REMARK  129  A    between atoms: _330  and  _333
REMARK  130  A    between atoms: _336  and  _338
REMARK  131  A    between atoms: _338  and  _339
REMARK  132  A    between atoms: _342  and  _344
REMARK  133  A    between atoms: _344  and  _345
REMARK  134  A    between atoms: _344  and  _347
REMARK  135  A    between atoms: _347  and  _348
REMARK  136  A    between atoms: _353  and  _355
REMARK  137  A    between atoms: _355  and  _356
REMARK  138  A    between atoms: _355  and  _358
REMARK  139  A    between atoms: _358  and  _359
REMARK  140  A    between atoms: _359  and  _360
REMARK  141  A    between atoms: _360  and  _361
REMARK  142  A    between atoms: _361  and  _362
REMARK  143  A    between atoms: _366  and  _368
REMARK  144  A    between atoms: _368  and  _369
REMARK  145  A    between atoms: _368  and  _371
REMARK  146  A    between atoms: _371  and  _372
REMARK  147  A    between atoms: _377  and  _379
REMARK  148  A    between atoms: _379  and  _380
REMARK  149  A    between atoms: _382  and  _384
REMARK  150  A    between atoms: _384  and  _385
REMARK  151  A    between atoms: _384  and  _387
REMARK  152  A    between atoms: _387  and  _388
REMARK  153  A    between atoms: _391  and  _393
REMARK  154  A    between atoms: _393  and  _394
REMARK  155  A    between atoms: _393  and  _396
REMARK  156  A    between atoms: _396  and  _397
REMARK  157  A    between atoms: _397  and  _398
REMARK  158  A    between atoms: _398  and  _399
REMARK  159  A    between atoms: _399  and  _400
REMARK  160  A    between atoms: _404  and  _406
REMARK  161  A    between atoms: _406  and  _407
REMARK  162  A    between atoms: _406  and  _409
REMARK  163  A    between atoms: _409  and  _410
REMARK  164  A    between atoms: _410  and  _411
REMARK  165  A    between atoms: _411  and  _412
REMARK  166  A    between atoms: _421  and  _423
REMARK  167  A    between atoms: _423  and  _424
REMARK  168  A    between atoms: _423  and  _426
REMARK  169  A    between atoms: _426  and  _427
REMARK  170  A    between atoms: _432  and  _433
REMARK  171  A    between atoms: _435  and  _437
REMARK  172  A    between atoms: _437  and  _438
REMARK  173  A    between atoms: _437  and  _440
REMARK  174  A    between atoms: _440  and  _441
REMARK  175  A    between atoms: _441  and  _442
REMARK  176  A    between atoms: _442  and  _443
REMARK  177  A    between atoms: _443  and  _444
REMARK  178  A    between atoms: _448  and  _450
REMARK  179  A    between atoms: _450  and  _451
REMARK  180  A    between atoms: _450  and  _453
REMARK  181  A    between atoms: _453  and  _454
REMARK  182  A    between atoms: _456  and  _458
REMARK  183  A    between atoms: _458  and  _459
REMARK  184  A    between atoms: _458  and  _461
REMARK  185  A    between atoms: _461  and  _462
REMARK  186  A    between atoms: _465  and  _467
REMARK  187  A    between atoms: _467  and  _468
REMARK  188  A    between atoms: _467  and  _470
REMARK  189  A    between atoms: _470  and  _471
REMARK  190  A    between atoms: _471  and  _472
REMARK  191  A    between atoms: _475  and  _477
REMARK  192  A    between atoms: _477  and  _478
REMARK  193  A    between atoms: _481  and  _483
REMARK  194  A    between atoms: _483  and  _484
REMARK  195  A    between atoms: _483  and  _486
REMARK  196  A    between atoms: _486  and  _487
REMARK  197  A    between atoms: _489  and  _491
REMARK  198  A    between atoms: _491  and  _492
REMARK  199  A    between atoms: _494  and  _496
REMARK  200  A    between atoms: _496  and  _497
REMARK  201  A    between atoms: _496  and  _499
REMARK  202  A    between atoms: _499  and  _500
REMARK  203  A    between atoms: _503  and  _505
REMARK  204  A    between atoms: _505  and  _506
REMARK  205  A    between atoms: _508  and  _510
REMARK  206  A    between atoms: _510  and  _511
REMARK  207  A    between atoms: _510  and  _513
REMARK  208  A    between atoms: _513  and  _514
REMARK  209  A    between atoms: _519  and  _521
REMARK  210  A    between atoms: _521  and  _522
REMARK  211  A    between atoms: _521  and  _524
REMARK  212  A    between atoms: _524  and  _525
REMARK  213  A    between atoms: _525  and  _526
REMARK  214  A    between atoms: _533  and  _534
REMARK  215  A    between atoms: _534  and  _550
REMARK  216  A    between atoms: _535  and  _537
REMARK  217  A    between atoms: _537  and  _538
REMARK  218  A    between atoms: _538  and  _539
REMARK  219  A    between atoms: _543  and  _545
REMARK  220  A    between atoms: _545  and  _546
REMARK  221  A    between atoms: _545  and  _553
REMARK  222  A    between atoms: _546  and  _547
REMARK  223  A    between atoms: _547  and  _548
REMARK  224  A    between atoms: _548  and  _549
REMARK  225  A    between atoms: _549  and  _550
REMARK  226  A    between atoms: _555  and  _557
REMARK  227  A    between atoms: _557  and  _558
REMARK  228  A    between atoms: _557  and  _560
REMARK  229  A    between atoms: _560  and  _561
REMARK  230  A    between atoms: _564  and  _566
REMARK  231  A    between atoms: _566  and  _567
REMARK  232  A    between atoms: _569  and  _571
REMARK  233  A    between atoms: _571  and  _572
REMARK  234  A    between atoms: _575  and  _577
REMARK  235  A    between atoms: _577  and  _578
REMARK  236  A    between atoms: _577  and  _580
REMARK  237  A    between atoms: _580  and  _581
REMARK  238  A    between atoms: _586  and  _587
REMARK                            x       y       z     vdW  Elec       q    Type
REMARK                         _______ _______ _______ _____ _____    ______ ____
ROOT
ATOM      1  C   LYS A   1      26.212  30.476  27.303  0.00  0.00    +0.238 C 
ATOM      2  N   ARG A   2      27.296  30.173  28.005  0.00  0.00    -0.298 N 
ATOM      3  H   ARG A   2      27.620  29.186  28.064  0.00  0.00    +0.150 HD
ATOM      4  O   LYS A   1      25.773  31.624  27.245  0.00  0.00    -0.274 OA
ENDROOT
BRANCH   1   5
ATOM      5  CA  LYS A   1      25.498  29.343  26.549  0.00  0.00    +0.145 C 
BRANCH   5   6
ATOM      6  N   LYS A   1      24.195  29.902  26.149  0.00  0.00    -0.238 NA
ATOM      7  H   LYS A   1      23.952  30.855  26.488  0.00  0.00    +0.142 HD
ENDBRANCH   5   6
BRANCH   5   8
ATOM      8  CB  LYS A   1      26.333  28.929  25.326  0.00  0.00    +0.026 C 
BRANCH   8   9
ATOM      9  CG  LYS A   1      26.490  30.030  24.263  0.00  0.00    -0.000 C 
BRANCH   9  10
ATOM     10  CD  LYS A   1      27.138  29.541  22.945  0.00  0.00    -0.024 C 
BRANCH  10  11
ATOM     11  CE  LYS A   1      26.206  28.595  22.149  0.00  0.00    -0.086 C 
BRANCH  11  12
ATOM     12  NZ  LYS A   1      26.729  27.193  22.146  0.00  0.00    +0.380 N 
ATOM     13  HZ1 LYS A   1      26.795  26.847  23.124  0.00  0.00    -0.089 HD
ATOM     14  HZ2 LYS A   1      27.671  27.177  21.707  0.00  0.00    -0.089 HD
ATOM     15  HZ3 LYS A   1      26.082  26.584  21.605  0.00  0.00    -0.089 HD
ENDBRANCH  11  12
ENDBRANCH  10  11
ENDBRANCH   9  10
ENDBRANCH   8   9
ENDBRANCH   5   8
ENDBRANCH   1   5
BRANCH   2  16
ATOM     16  CA  ARG A   2      28.038  31.234  28.698  0.00  0.00    +0.137 C 
BRANCH  16  17
ATOM     17  C   ARG A   2      28.543  32.303  27.708  0.00  0.00    +0.227 C 
ATOM     18  O   ARG A   2      28.860  31.996  26.547  0.00  0.00    -0.286 OA
ENDBRANCH  16  17
BRANCH  16  19
ATOM     19  CB  ARG A   2      29.205  30.650  29.504  0.00  0.00    +0.031 C 
BRANCH  19  20
ATOM     20  CG  ARG A   2      28.795  29.812  30.705  0.00  0.00    +0.045 C 
BRANCH  20  21
ATOM     21  CD  ARG A   2      28.255  30.663  31.861  0.00  0.00    +0.174 C 
BRANCH  21  22
ATOM     22  NE  ARG A   2      29.270  31.562  32.431  0.00  0.00    -0.265 N 
ATOM     23  CZ  ARG A   2      29.882  31.375  33.601  0.00  0.00    +0.342 C 
ATOM     24  NH2 ARG A   2      29.600  30.316  34.361  0.00  0.00    -0.292 N 
ATOM     25 HH21 ARG A   2      30.086  30.185  35.271  0.00  0.00    +0.255 HD
ATOM     26 HH22 ARG A   2      28.894  29.621  34.044  0.00  0.00    +0.255 HD
ATOM     27  NH1 ARG A   2      30.787  32.257  34.018  0.00  0.00    -0.292 N 
ATOM     28 HH11 ARG A   2      31.268  32.117  34.929  0.00  0.00    +0.255 HD
ATOM     29 HH12 ARG A   2      31.013  33.086  33.432  0.00  0.00    +0.255 HD
ATOM     30  HE  ARG A   2      29.530  32.406  31.881  0.00  0.00    +0.259 HD
ENDBRANCH  21  22
ENDBRANCH  20  21
ENDBRANCH  19  20
ENDBRANCH  16  19
ENDBRANCH   2  16
TORSDOF 13
REMARK  Name = ../refined-set-2016/3l7b/3l7b_pocket.pdb
REMARK  238 active torsions:
REMARK  status: ('A' for Active; 'I' for Inactive)
REMARK    1  A    between atoms: _1  and  _3
REMARK    2  A    between atoms: _3  and  _4
REMARK    3  A    between atoms: _3  and  _6
REMARK    4  A    between atoms: _6  and  _7
REMARK    5  A    between atoms: _12  and  _13
REMARK    6  A    between atoms: _15  and  _17
REMARK    7  A    between atoms: _17  and  _18
REMARK    8  A    between atoms: _17  and  _20
REMARK    9  A    between atoms: _20  and  _21
REMARK   10  A    between atoms: _21  and  _22
REMARK   11  A    between atoms: _25  and  _27
REMARK   12  A    between atoms: _27  and  _28
REMARK   13  A    between atoms: _27  and  _30
REMARK   14  A    between atoms: _30  and  _31
REMARK   15  A    between atoms: _36  and  _37
REMARK   16  A    between atoms: _39  and  _41
REMARK   17  A    between atoms: _41  and  _42
REMARK   18  A    between atoms: _41  and  _44
REMARK   19  A    between atoms: _44  and  _45
REMARK   20  A    between atoms: _50  and  _52
REMARK   21  A    between atoms: _52  and  _53
REMARK   22  A    between atoms: _55  and  _57
REMARK   23  A    between atoms: _57  and  _58
REMARK   24  A    between atoms: _60  and  _62
REMARK   25  A    between atoms: _62  and  _63
REMARK   26  A    between atoms: _62  and  _65
REMARK   27  A    between atoms: _65  and  _66
REMARK   28  A    between atoms: _69  and  _71
REMARK   29  A    between atoms: _71  and  _72
REMARK   30  A    between atoms: _74  and  _76
REMARK   31  A    between atoms: _76  and  _77
REMARK   32  A    between atoms: _76  and  _79
REMARK   33  A    between atoms: _80  and  _81
REMARK   34  A    between atoms: _81  and  _82
REMARK   35  A    between atoms: _91  and  _93
REMARK   36  A    between atoms: _93  and  _94
REMARK   37  A    between atoms: _93  and  _96
REMARK   38  A    between atoms: _96  and  _97
REMARK   39  A    between atoms: _100  and  _102
REMARK   40  A    between atoms: _102  and  _103
REMARK   41  A    between atoms: _106  and  _108
REMARK   42  A    between atoms: _108  and  _109
REMARK   43  A    between atoms: _108  and  _111
REMARK   44  A    between atoms: _111  and  _112
REMARK   45  A    between atoms: _118  and  _120
REMARK   46  A    between atoms: _120  and  _121
REMARK   47  A    between atoms: _120  and  _123
REMARK   48  A    between atoms: _123  and  _124
REMARK   49  A    between atoms: _129  and  _131
REMARK   50  A    between atoms: _131  and  _132
REMARK   51  A    between atoms: _131  and  _134
REMARK   52  A    between atoms: _134  and  _135
REMARK   53  A    between atoms: _138  and  _140
REMARK   54  A    between atoms: _140  and  _141
REMARK   55  A    between atoms: _140  and  _143
REMARK   56  A    between atoms: _143  and  _144
REMARK   57  A    between atoms: _149  and  _151
REMARK   58  A    between atoms: _151  and  _152
REMARK   59  A    between atoms: _151  and  _154
REMARK   60  A    between atoms: _154  and  _155
REMARK   61  A    between atoms: _161  and  _163
REMARK   62  A    between atoms: _163  and  _164
REMARK   63  A    between atoms: _163  and  _166
REMARK   64  A    between atoms: _166  and  _167
REMARK   65  A    between atoms: _173  and  _175
REMARK   66  A    between atoms: _175  and  _176
REMARK   67  A    between atoms: _175  and  _178
REMARK   68  A    between atoms: _178  and  _179
REMARK   69  A    between atoms: _179  and  _180
REMARK   70  A    between atoms: _180  and  _181
REMARK   71  A    between atoms: _190  and  _192
REMARK   72  A    between atoms: _192  and  _193
REMARK   73  A    between atoms: _192  and  _195
REMARK   74  A    between atoms: _195  and  _196
REMARK   75  A    between atoms: _201  and  _203
REMARK   76  A    between atoms: _203  and  _204
REMARK   77  A    between atoms: _203  and  _206
REMARK   78  A    between atoms: _206  and  _207
REMARK   79  A    between atoms: _210  and  _212
REMARK   80  A    between atoms: _212  and  _213
REMARK   81  A    between atoms: _212  and  _215
REMARK   82  A    between atoms: _215  and  _216
REMARK   83  A    between atoms: _219  and  _221
REMARK   84  A    between atoms: _221  and  _222
REMARK   85  A    between atoms: _221  and  _224
REMARK   86  A    between atoms: _224  and  _225
REMARK   87  A    between atoms: _230  and  _232
REMARK   88  A    between atoms: _232  and  _233
REMARK   89  A    between atoms: _232  and  _235
REMARK   90  A    between atoms: _235  and  _236
REMARK   91  A    between atoms: _239  and  _241
REMARK   92  A    between atoms: _241  and  _242
REMARK   93  A    between atoms: _241  and  _244
REMARK   94  A    between atoms: _244  and  _245
REMARK   95  A    between atoms: _250  and  _252
REMARK   96  A    between atoms: _252  and  _253
REMARK   97  A    between atoms: _252  and  _255
REMARK   98  A    between atoms: _255  and  _256
REMARK   99  A    between atoms: _261  and  _263
REMARK  100  A    between atoms: _263  and  _264
REMARK  101  A    between atoms: _263  and  _266
REMARK  102  A    between atoms: _266  and  _267
REMARK  103  A    between atoms: _270  and  _272
REMARK  104  A    between atoms: _272  and  _273
REMARK  105  A    between atoms: _272  and  _275
REMARK  106  A    between atoms: _278  and  _280
REMARK  107  A    between atoms: _280  and  _281
REMARK  108  A    between atoms: _280  and  _283
REMARK  109  A    between atoms: _283  and  _284
REMARK  110  A    between atoms: _287  and  _289
REMARK  111  A    between atoms: _289  and  _290
REMARK  112  A    between atoms: _293  and  _295
REMARK  113  A    between atoms: _295  and  _296
REMARK  114  A    between atoms: _295  and  _298
REMARK  115  A    between atoms: _298  and  _299
REMARK  116  A    between atoms: _302  and  _304
REMARK  117  A    between atoms: _304  and  _305
REMARK  118  A    between atoms: _304  and  _307
REMARK  119  A    between atoms: _307  and  _308
REMARK  120  A    between atoms: _308  and  _309
REMARK  121  A    between atoms: _312  and  _314
REMARK  122  A    between atoms: _314  and  _315
REMARK  123  A    between atoms: _314  and  _317
REMARK  124  A    between atoms: _317  and  _318
REMARK  125  A    between atoms: _323  and  _325
REMARK  126  A    between atoms: _325  and  _326
REMARK  127  A    between atoms: _328  and  _330
REMARK  128  A    between atoms: _330  and  _331
REMARK  129  A    between atoms: _330  and  _333
REMARK  130  A    between atoms: _336  and  _338
REMARK  131  A    between atoms: _338  and  _339
REMARK  132  A    between atoms: _342  and  _344
REMARK  133  A    between atoms: _344  and  _345
REMARK  134  A    between atoms: _344  and  _347
REMARK  135  A    between atoms: _347  and  _348
REMARK  136  A    between atoms: _353  and  _355
REMARK  137  A    between atoms: _355  and  _356
REMARK  138  A    between atoms: _355  and  _358
REMARK  139  A    between atoms: _358  and  _359
REMARK  140  A    between atoms: _359  and  _360
REMARK  141  A    between atoms: _360  and  _361
REMARK  142  A    between atoms: _361  and  _362
REMARK  143  A    between atoms: _366  and  _368
REMARK  144  A    between atoms: _368  and  _369
REMARK  145  A    between atoms: _368  and  _371
REMARK  146  A    between atoms: _371  and  _372
REMARK  147  A    between atoms: _377  and  _379
REMARK  148  A    between atoms: _379  and  _380
REMARK  149  A    between atoms: _382  and  _384
REMARK  150  A    between atoms: _384  and  _385
REMARK  151  A    between atoms: _384  and  _387
REMARK  152  A    between atoms: _387  and  _388
REMARK  153  A    between atoms: _391  and  _393
REMARK  154  A    between atoms: _393  and  _394
REMARK  155  A    between atoms: _393  and  _396
REMARK  156  A    between atoms: _396  and  _397
REMARK  157  A    between atoms: _397  and  _398
REMARK  158  A    between atoms: _398  and  _399
REMARK  159  A    between atoms: _399  and  _400
REMARK  160  A    between atoms: _404  and  _406
REMARK  161  A    between atoms: _406  and  _407
REMARK  162  A    between atoms: _406  and  _409
REMARK  163  A    between atoms: _409  and  _410
REMARK  164  A    between atoms: _410  and  _411
REMARK  165  A    between atoms: _411  and  _412
REMARK  166  A    between atoms: _421  and  _423
REMARK  167  A    between atoms: _423  and  _424
REMARK  168  A    between atoms: _423  and  _426
REMARK  169  A    between atoms: _426  and  _427
REMARK  170  A    between atoms: _432  and  _433
REMARK  171  A    between atoms: _435  and  _437
REMARK  172  A    between atoms: _437  and  _438
REMARK  173  A    between atoms: _437  and  _440
REMARK  174  A    between atoms: _440  and  _441
REMARK  175  A    between atoms: _441  and  _442
REMARK  176  A    between atoms: _442  and  _443
REMARK  177  A    between atoms: _443  and  _444
REMARK  178  A    between atoms: _448  and  _450
REMARK  179  A    between atoms: _450  and  _451
REMARK  180  A    between atoms: _450  and  _453
REMARK  181  A    between atoms: _453  and  _454
REMARK  182  A    between atoms: _456  and  _458
REMARK  183  A    between atoms: _458  and  _459
REMARK  184  A    between atoms: _458  and  _461
REMARK  185  A    between atoms: _461  and  _462
REMARK  186  A    between atoms: _465  and  _467
REMARK  187  A    between atoms: _467  and  _468
REMARK  188  A    between atoms: _467  and  _470
REMARK  189  A    between atoms: _470  and  _471
REMARK  190  A    between atoms: _471  and  _472
REMARK  191  A    between atoms: _475  and  _477
REMARK  192  A    between atoms: _477  and  _478
REMARK  193  A    between atoms: _481  and  _483
REMARK  194  A    between atoms: _483  and  _484
REMARK  195  A    between atoms: _483  and  _486
REMARK  196  A    between atoms: _486  and  _487
REMARK  197  A    between atoms: _489  and  _491
REMARK  198  A    between atoms: _491  and  _492
REMARK  199  A    between atoms: _494  and  _496
REMARK  200  A    between atoms: _496  and  _497
REMARK  201  A    between atoms: _496  and  _499
REMARK  202  A    between atoms: _499  and  _500
REMARK  203  A    between atoms: _503  and  _505
REMARK  204  A    between atoms: _505  and  _506
REMARK  205  A    between atoms: _508  and  _510
REMARK  206  A    between atoms: _510  and  _511
REMARK  207  A    between atoms: _510  and  _513
REMARK  208  A    between atoms: _513  and  _514
REMARK  209  A    between atoms: _519  and  _521
REMARK  210  A    between atoms: _521  and  _522
REMARK  211  A    between atoms: _521  and  _524
REMARK  212  A    between atoms: _524  and  _525
REMARK  213  A    between atoms: _525  and  _526
REMARK  214  A    between atoms: _533  and  _534
REMARK  215  A    between atoms: _534  and  _550
REMARK  216  A    between atoms: _535  and  _537
REMARK  217  A    between atoms: _537  and  _538
REMARK  218  A    between atoms: _538  and  _539
REMARK  219  A    between atoms: _543  and  _545
REMARK  220  A    between atoms: _545  and  _546
REMARK  221  A    between atoms: _545  and  _553
REMARK  222  A    between atoms: _546  and  _547
REMARK  223  A    between atoms: _547  and  _548
REMARK  224  A    between atoms: _548  and  _549
REMARK  225  A    between atoms: _549  and  _550
REMARK  226  A    between atoms: _555  and  _557
REMARK  227  A    between atoms: _557  and  _558
REMARK  228  A    between atoms: _557  and  _560
REMARK  229  A    between atoms: _560  and  _561
REMARK  230  A    between atoms: _564  and  _566
REMARK  231  A    between atoms: _566  and  _567
REMARK  232  A    between atoms: _569  and  _571
REMARK  233  A    between atoms: _571  and  _572
REMARK  234  A    between atoms: _575  and  _577
REMARK  235  A    between atoms: _577  and  _578
REMARK  236  A    between atoms: _577  and  _580
REMARK  237  A    between atoms: _580  and  _581
REMARK  238  A    between atoms: _586  and  _587
REMARK                            x       y       z     vdW  Elec       q    Type
REMARK                         _______ _______ _______ _____ _____    ______ ____
ROOT
ATOM      1  C   TYR A   1      33.710  32.266  20.698  0.00  0.00    +0.239 C 
ATOM      2  N   LYS A   2      32.677  32.372  21.531  0.00  0.00    -0.298 N 
ATOM      3  H   LYS A   2      32.814  32.832  22.454  0.00  0.00    +0.150 HD
ATOM      4  O   TYR A   1      33.633  31.728  19.589  0.00  0.00    -0.274 OA
ENDROOT
BRANCH   1   5
ATOM      5  CA  TYR A   1      35.041  32.853  21.168  0.00  0.00    +0.149 C 
BRANCH   5   6
ATOM      6  N   TYR A   1      34.904  33.947  22.145  0.00  0.00    -0.238 NA
ATOM      7  H   TYR A   1      35.226  33.816  23.125  0.00  0.00    +0.142 HD
ENDBRANCH   5   6
BRANCH   5   8
ATOM      8  CB  TYR A   1      36.024  31.762  21.627  0.00  0.00    +0.053 C 
BRANCH   8   9
ATOM      9  CG  TYR A   1      35.472  30.650  22.486  0.00  0.00    -0.020 A 
ATOM     10  CD2 TYR A   1      35.565  30.706  23.880  0.00  0.00    -0.001 A 
ATOM     11  CE2 TYR A   1      35.082  29.667  24.679  0.00  0.00    +0.036 A 
ATOM     12  CZ  TYR A   1      34.531  28.551  24.086  0.00  0.00    +0.134 A 
ATOM     13  CE1 TYR A   1      34.439  28.462  22.702  0.00  0.00    +0.036 A 
ATOM     14  CD1 TYR A   1      34.923  29.504  21.911  0.00  0.00    -0.001 A 
BRANCH  12  15
ATOM     15  OH  TYR A   1      34.054  27.517  24.879  0.00  0.00    -0.506 OA
ATOM     16  HH  TYR A   1      33.694  26.798  24.301  0.00  0.00    +0.292 HD
ENDBRANCH  12  15
ENDBRANCH   8   9
ENDBRANCH   5   8
ENDBRANCH   1   5
BRANCH   2  17
ATOM     17  CA  LYS A   2      31.353  31.857  21.179  0.00  0.00    +0.137 C 
BRANCH  17  18
ATOM     18  C   LYS A   2      30.603  32.812  20.218  0.00  0.00    +0.227 C 
ATOM     19  O   LYS A   2      29.595  32.435  19.609  0.00  0.00    -0.286 OA
ENDBRANCH  17  18
BRANCH  17  20
ATOM     20  CB  LYS A   2      30.527  31.551  22.440  0.00  0.00    +0.028 C 
BRANCH  20  21
ATOM     21  CG  LYS A   2      31.040  30.331  23.272  0.00  0.00    -0.000 C 
BRANCH  21  22
ATOM     22  CD  LYS A   2      30.481  30.352  24.695  0.00  0.00    -0.024 C 
BRANCH  22  23
ATOM     23  CE  LYS A   2      31.035  29.244  25.620  0.00  0.00    -0.086 C 
BRANCH  23  24
ATOM     24  NZ  LYS A   2      30.513  27.882  25.191  0.00  0.00    +0.380 N 
ATOM     25  HZ1 LYS A   2      30.896  27.151  25.824  0.00  0.00    -0.089 HD
ATOM     26  HZ2 LYS A   2      29.474  27.878  25.243  0.00  0.00    -0.089 HD
ATOM     27  HZ3 LYS A   2      30.813  27.689  24.214  0.00  0.00    -0.089 HD
ENDBRANCH  23  24
ENDBRANCH  22  23
ENDBRANCH  21  22
ENDBRANCH  20  21
ENDBRANCH  17  20
ENDBRANCH   2  17
TORSDOF 12
REMARK  Name = ../refined-set-2016/3l7b/3l7b_pocket.pdb
REMARK  238 active torsions:
REMARK  status: ('A' for Active; 'I' for Inactive)
REMARK    1  A    between atoms: _1  and  _3
REMARK    2  A    between atoms: _3  and  _4
REMARK    3  A    between atoms: _3  and  _6
REMARK    4  A    between atoms: _6  and  _7
REMARK    5  A    between atoms: _12  and  _13
REMARK    6  A    between atoms: _15  and  _17
REMARK    7  A    between atoms: _17  and  _18
REMARK    8  A    between atoms: _17  and  _20
REMARK    9  A    between atoms: _20  and  _21
REMARK   10  A    between atoms: _21  and  _22
REMARK   11  A    between atoms: _25  and  _27
REMARK   12  A    between atoms: _27  and  _28
REMARK   13  A    between atoms: _27  and  _30
REMARK   14  A    between atoms: _30  and  _31
REMARK   15  A    between atoms: _36  and  _37
REMARK   16  A    between atoms: _39  and  _41
REMARK   17  A    between atoms: _41  and  _42
REMARK   18  A    between atoms: _41  and  _44
REMARK   19  A    between atoms: _44  and  _45
REMARK   20  A    between atoms: _50  and  _52
REMARK   21  A    between atoms: _52  and  _53
REMARK   22  A    between atoms: _55  and  _57
REMARK   23  A    between atoms: _57  and  _58
REMARK   24  A    between atoms: _60  and  _62
REMARK   25  A    between atoms: _62  and  _63
REMARK   26  A    between atoms: _62  and  _65
REMARK   27  A    between atoms: _65  and  _66
REMARK   28  A    between atoms: _69  and  _71
REMARK   29  A    between atoms: _71  and  _72
REMARK   30  A    between atoms: _74  and  _76
REMARK   31  A    between atoms: _76  and  _77
REMARK   32  A    between atoms: _76  and  _79
REMARK   33  A    between atoms: _80  and  _81
REMARK   34  A    between atoms: _81  and  _82
REMARK   35  A    between atoms: _91  and  _93
REMARK   36  A    between atoms: _93  and  _94
REMARK   37  A    between atoms: _93  and  _96
REMARK   38  A    between atoms: _96  and  _97
REMARK   39  A    between atoms: _100  and  _102
REMARK   40  A    between atoms: _102  and  _103
REMARK   41  A    between atoms: _106  and  _108
REMARK   42  A    between atoms: _108  and  _109
REMARK   43  A    between atoms: _108  and  _111
REMARK   44  A    between atoms: _111  and  _112
REMARK   45  A    between atoms: _118  and  _120
REMARK   46  A    between atoms: _120  and  _121
REMARK   47  A    between atoms: _120  and  _123
REMARK   48  A    between atoms: _123  and  _124
REMARK   49  A    between atoms: _129  and  _131
REMARK   50  A    between atoms: _131  and  _132
REMARK   51  A    between atoms: _131  and  _134
REMARK   52  A    between atoms: _134  and  _135
REMARK   53  A    between atoms: _138  and  _140
REMARK   54  A    between atoms: _140  and  _141
REMARK   55  A    between atoms: _140  and  _143
REMARK   56  A    between atoms: _143  and  _144
REMARK   57  A    between atoms: _149  and  _151
REMARK   58  A    between atoms: _151  and  _152
REMARK   59  A    between atoms: _151  and  _154
REMARK   60  A    between atoms: _154  and  _155
REMARK   61  A    between atoms: _161  and  _163
REMARK   62  A    between atoms: _163  and  _164
REMARK   63  A    between atoms: _163  and  _166
REMARK   64  A    between atoms: _166  and  _167
REMARK   65  A    between atoms: _173  and  _175
REMARK   66  A    between atoms: _175  and  _176
REMARK   67  A    between atoms: _175  and  _178
REMARK   68  A    between atoms: _178  and  _179
REMARK   69  A    between atoms: _179  and  _180
REMARK   70  A    between atoms: _180  and  _181
REMARK   71  A    between atoms: _190  and  _192
REMARK   72  A    between atoms: _192  and  _193
REMARK   73  A    between atoms: _192  and  _195
REMARK   74  A    between atoms: _195  and  _196
REMARK   75  A    between atoms: _201  and  _203
REMARK   76  A    between atoms: _203  and  _204
REMARK   77  A    between atoms: _203  and  _206
REMARK   78  A    between atoms: _206  and  _207
REMARK   79  A    between atoms: _210  and  _212
REMARK   80  A    between atoms: _212  and  _213
REMARK   81  A    between atoms: _212  and  _215
REMARK   82  A    between atoms: _215  and  _216
REMARK   83  A    between atoms: _219  and  _221
REMARK   84  A    between atoms: _221  and  _222
REMARK   85  A    between atoms: _221  and  _224
REMARK   86  A    between atoms: _224  and  _225
REMARK   87  A    between atoms: _230  and  _232
REMARK   88  A    between atoms: _232  and  _233
REMARK   89  A    between atoms: _232  and  _235
REMARK   90  A    between atoms: _235  and  _236
REMARK   91  A    between atoms: _239  and  _241
REMARK   92  A    between atoms: _241  and  _242
REMARK   93  A    between atoms: _241  and  _244
REMARK   94  A    between atoms: _244  and  _245
REMARK   95  A    between atoms: _250  and  _252
REMARK   96  A    between atoms: _252  and  _253
REMARK   97  A    between atoms: _252  and  _255
REMARK   98  A    between atoms: _255  and  _256
REMARK   99  A    between atoms: _261  and  _263
REMARK  100  A    between atoms: _263  and  _264
REMARK  101  A    between atoms: _263  and  _266
REMARK  102  A    between atoms: _266  and  _267
REMARK  103  A    between atoms: _270  and  _272
REMARK  104  A    between atoms: _272  and  _273
REMARK  105  A    between atoms: _272  and  _275
REMARK  106  A    between atoms: _278  and  _280
REMARK  107  A    between atoms: _280  and  _281
REMARK  108  A    between atoms: _280  and  _283
REMARK  109  A    between atoms: _283  and  _284
REMARK  110  A    between atoms: _287  and  _289
REMARK  111  A    between atoms: _289  and  _290
REMARK  112  A    between atoms: _293  and  _295
REMARK  113  A    between atoms: _295  and  _296
REMARK  114  A    between atoms: _295  and  _298
REMARK  115  A    between atoms: _298  and  _299
REMARK  116  A    between atoms: _302  and  _304
REMARK  117  A    between atoms: _304  and  _305
REMARK  118  A    between atoms: _304  and  _307
REMARK  119  A    between atoms: _307  and  _308
REMARK  120  A    between atoms: _308  and  _309
REMARK  121  A    between atoms: _312  and  _314
REMARK  122  A    between atoms: _314  and  _315
REMARK  123  A    between atoms: _314  and  _317
REMARK  124  A    between atoms: _317  and  _318
REMARK  125  A    between atoms: _323  and  _325
REMARK  126  A    between atoms: _325  and  _326
REMARK  127  A    between atoms: _328  and  _330
REMARK  128  A    between atoms: _330  and  _331
REMARK  129  A    between atoms: _330  and  _333
REMARK  130  A    between atoms: _336  and  _338
REMARK  131  A    between atoms: _338  and  _339
REMARK  132  A    between atoms: _342  and  _344
REMARK  133  A    between atoms: _344  and  _345
REMARK  134  A    between atoms: _344  and  _347
REMARK  135  A    between atoms: _347  and  _348
REMARK  136  A    between atoms: _353  and  _355
REMARK  137  A    between atoms: _355  and  _356
REMARK  138  A    between atoms: _355  and  _358
REMARK  139  A    between atoms: _358  and  _359
REMARK  140  A    between atoms: _359  and  _360
REMARK  141  A    between atoms: _360  and  _361
REMARK  142  A    between atoms: _361  and  _362
REMARK  143  A    between atoms: _366  and  _368
REMARK  144  A    between atoms: _368  and  _369
REMARK  145  A    between atoms: _368  and  _371
REMARK  146  A    between atoms: _371  and  _372
REMARK  147  A    between atoms: _377  and  _379
REMARK  148  A    between atoms: _379  and  _380
REMARK  149  A    between atoms: _382  and  _384
REMARK  150  A    between atoms: _384  and  _385
REMARK  151  A    between atoms: _384  and  _387
REMARK  152  A    between atoms: _387  and  _388
REMARK  153  A    between atoms: _391  and  _393
REMARK  154  A    between atoms: _393  and  _394
REMARK  155  A    between atoms: _393  and  _396
REMARK  156  A    between atoms: _396  and  _397
REMARK  157  A    between atoms: _397  and  _398
REMARK  158  A    between atoms: _398  and  _399
REMARK  159  A    between atoms: _399  and  _400
REMARK  160  A    between atoms: _404  and  _406
REMARK  161  A    between atoms: _406  and  _407
REMARK  162  A    between atoms: _406  and  _409
REMARK  163  A    between atoms: _409  and  _410
REMARK  164  A    between atoms: _410  and  _411
REMARK  165  A    between atoms: _411  and  _412
REMARK  166  A    between atoms: _421  and  _423
REMARK  167  A    between atoms: _423  and  _424
REMARK  168  A    between atoms: _423  and  _426
REMARK  169  A    between atoms: _426  and  _427
REMARK  170  A    between atoms: _432  and  _433
REMARK  171  A    between atoms: _435  and  _437
REMARK  172  A    between atoms: _437  and  _438
REMARK  173  A    between atoms: _437  and  _440
REMARK  174  A    between atoms: _440  and  _441
REMARK  175  A    between atoms: _441  and  _442
REMARK  176  A    between atoms: _442  and  _443
REMARK  177  A    between atoms: _443  and  _444
REMARK  178  A    between atoms: _448  and  _450
REMARK  179  A    between atoms: _450  and  _451
REMARK  180  A    between atoms: _450  and  _453
REMARK  181  A    between atoms: _453  and  _454
REMARK  182  A    between atoms: _456  and  _458
REMARK  183  A    between atoms: _458  and  _459
REMARK  184  A    between atoms: _458  and  _461
REMARK  185  A    between atoms: _461  and  _462
REMARK  186  A    between atoms: _465  and  _467
REMARK  187  A    between atoms: _467  and  _468
REMARK  188  A    between atoms: _467  and  _470
REMARK  189  A    between atoms: _470  and  _471
REMARK  190  A    between atoms: _471  and  _472
REMARK  191  A    between atoms: _475  and  _477
REMARK  192  A    between atoms: _477  and  _478
REMARK  193  A    between atoms: _481  and  _483
REMARK  194  A    between atoms: _483  and  _484
REMARK  195  A    between atoms: _483  and  _486
REMARK  196  A    between atoms: _486  and  _487
REMARK  197  A    between atoms: _489  and  _491
REMARK  198  A    between atoms: _491  and  _492
REMARK  199  A    between atoms: _494  and  _496
REMARK  200  A    between atoms: _496  and  _497
REMARK  201  A    between atoms: _496  and  _499
REMARK  202  A    between atoms: _499  and  _500
REMARK  203  A    between atoms: _503  and  _505
REMARK  204  A    between atoms: _505  and  _506
REMARK  205  A    between atoms: _508  and  _510
REMARK  206  A    between atoms: _510  and  _511
REMARK  207  A    between atoms: _510  and  _513
REMARK  208  A    between atoms: _513  and  _514
REMARK  209  A    between atoms: _519  and  _521
REMARK  210  A    between atoms: _521  and  _522
REMARK  211  A    between atoms: _521  and  _524
REMARK  212  A    between atoms: _524  and  _525
REMARK  213  A    between atoms: _525  and  _526
REMARK  214  A    between atoms: _533  and  _534
REMARK  215  A    between atoms: _534  and  _550
REMARK  216  A    between atoms: _535  and  _537
REMARK  217  A    between atoms: _537  and  _538
REMARK  218  A    between atoms: _538  and  _539
REMARK  219  A    between atoms: _543  and  _545
REMARK  220  A    between atoms: _545  and  _546
REMARK  221  A    between atoms: _545  and  _553
REMARK  222  A    between atoms: _546  and  _547
REMARK  223  A    between atoms: _547  and  _548
REMARK  224  A    between atoms: _548  and  _549
REMARK  225  A    between atoms: _549  and  _550
REMARK  226  A    between atoms: _555  and  _557
REMARK  227  A    between atoms: _557  and  _558
REMARK  228  A    between atoms: _557  and  _560
REMARK  229  A    between atoms: _560  and  _561
REMARK  230  A    between atoms: _564  and  _566
REMARK  231  A    between atoms: _566  and  _567
REMARK  232  A    between atoms: _569  and  _571
REMARK  233  A    between atoms: _571  and  _572
REMARK  234  A    between atoms: _575  and  _577
REMARK  235  A    between atoms: _577  and  _578
REMARK  236  A    between atoms: _577  and  _580
REMARK  237  A    between atoms: _580  and  _581
REMARK  238  A    between atoms: _586  and  _587
REMARK                            x       y       z     vdW  Elec       q    Type
REMARK                         _______ _______ _______ _____ _____    ______ ____
ROOT
ATOM      1  CA  SER A   1      32.062  29.601  17.556  0.00  0.00    +0.163 C 
ENDROOT
BRANCH   1   2
ATOM      2  N   SER A   1      30.670  29.383  17.117  0.00  0.00    -0.237 NA
ATOM      3  H   SER A   1      30.142  28.576  17.506  0.00  0.00    +0.142 HD
ENDBRANCH   1   2
BRANCH   1   4
ATOM      4  C   SER A   1      33.017  29.633  16.346  0.00  0.00    +0.227 C 
ATOM      5  O   SER A   1      32.740  29.009  15.329  0.00  0.00    -0.287 OA
ENDBRANCH   1   4
BRANCH   1   6
ATOM      6  CB  SER A   1      32.473  28.478  18.507  0.00  0.00    +0.162 C 
BRANCH   6   7
ATOM      7  OG  SER A   1      32.201  27.200  17.910  0.00  0.00    -0.380 OA
ATOM      8  H   SER A   1      31.233  27.126  17.719  0.00  0.00    +0.211 HD
ENDBRANCH   6   7
ENDBRANCH   1   6
TORSDOF 4
REMARK  Name = ../refined-set-2016/3l7b/3l7b_pocket.pdb
REMARK  238 active torsions:
REMARK  status: ('A' for Active; 'I' for Inactive)
REMARK    1  A    between atoms: _1  and  _3
REMARK    2  A    between atoms: _3  and  _4
REMARK    3  A    between atoms: _3  and  _6
REMARK    4  A    between atoms: _6  and  _7
REMARK    5  A    between atoms: _12  and  _13
REMARK    6  A    between atoms: _15  and  _17
REMARK    7  A    between atoms: _17  and  _18
REMARK    8  A    between atoms: _17  and  _20
REMARK    9  A    between atoms: _20  and  _21
REMARK   10  A    between atoms: _21  and  _22
REMARK   11  A    between atoms: _25  and  _27
REMARK   12  A    between atoms: _27  and  _28
REMARK   13  A    between atoms: _27  and  _30
REMARK   14  A    between atoms: _30  and  _31
REMARK   15  A    between atoms: _36  and  _37
REMARK   16  A    between atoms: _39  and  _41
REMARK   17  A    between atoms: _41  and  _42
REMARK   18  A    between atoms: _41  and  _44
REMARK   19  A    between atoms: _44  and  _45
REMARK   20  A    between atoms: _50  and  _52
REMARK   21  A    between atoms: _52  and  _53
REMARK   22  A    between atoms: _55  and  _57
REMARK   23  A    between atoms: _57  and  _58
REMARK   24  A    between atoms: _60  and  _62
REMARK   25  A    between atoms: _62  and  _63
REMARK   26  A    between atoms: _62  and  _65
REMARK   27  A    between atoms: _65  and  _66
REMARK   28  A    between atoms: _69  and  _71
REMARK   29  A    between atoms: _71  and  _72
REMARK   30  A    between atoms: _74  and  _76
REMARK   31  A    between atoms: _76  and  _77
REMARK   32  A    between atoms: _76  and  _79
REMARK   33  A    between atoms: _80  and  _81
REMARK   34  A    between atoms: _81  and  _82
REMARK   35  A    between atoms: _91  and  _93
REMARK   36  A    between atoms: _93  and  _94
REMARK   37  A    between atoms: _93  and  _96
REMARK   38  A    between atoms: _96  and  _97
REMARK   39  A    between atoms: _100  and  _102
REMARK   40  A    between atoms: _102  and  _103
REMARK   41  A    between atoms: _106  and  _108
REMARK   42  A    between atoms: _108  and  _109
REMARK   43  A    between atoms: _108  and  _111
REMARK   44  A    between atoms: _111  and  _112
REMARK   45  A    between atoms: _118  and  _120
REMARK   46  A    between atoms: _120  and  _121
REMARK   47  A    between atoms: _120  and  _123
REMARK   48  A    between atoms: _123  and  _124
REMARK   49  A    between atoms: _129  and  _131
REMARK   50  A    between atoms: _131  and  _132
REMARK   51  A    between atoms: _131  and  _134
REMARK   52  A    between atoms: _134  and  _135
REMARK   53  A    between atoms: _138  and  _140
REMARK   54  A    between atoms: _140  and  _141
REMARK   55  A    between atoms: _140  and  _143
REMARK   56  A    between atoms: _143  and  _144
REMARK   57  A    between atoms: _149  and  _151
REMARK   58  A    between atoms: _151  and  _152
REMARK   59  A    between atoms: _151  and  _154
REMARK   60  A    between atoms: _154  and  _155
REMARK   61  A    between atoms: _161  and  _163
REMARK   62  A    between atoms: _163  and  _164
REMARK   63  A    between atoms: _163  and  _166
REMARK   64  A    between atoms: _166  and  _167
REMARK   65  A    between atoms: _173  and  _175
REMARK   66  A    between atoms: _175  and  _176
REMARK   67  A    between atoms: _175  and  _178
REMARK   68  A    between atoms: _178  and  _179
REMARK   69  A    between atoms: _179  and  _180
REMARK   70  A    between atoms: _180  and  _181
REMARK   71  A    between atoms: _190  and  _192
REMARK   72  A    between atoms: _192  and  _193
REMARK   73  A    between atoms: _192  and  _195
REMARK   74  A    between atoms: _195  and  _196
REMARK   75  A    between atoms: _201  and  _203
REMARK   76  A    between atoms: _203  and  _204
REMARK   77  A    between atoms: _203  and  _206
REMARK   78  A    between atoms: _206  and  _207
REMARK   79  A    between atoms: _210  and  _212
REMARK   80  A    between atoms: _212  and  _213
REMARK   81  A    between atoms: _212  and  _215
REMARK   82  A    between atoms: _215  and  _216
REMARK   83  A    between atoms: _219  and  _221
REMARK   84  A    between atoms: _221  and  _222
REMARK   85  A    between atoms: _221  and  _224
REMARK   86  A    between atoms: _224  and  _225
REMARK   87  A    between atoms: _230  and  _232
REMARK   88  A    between atoms: _232  and  _233
REMARK   89  A    between atoms: _232  and  _235
REMARK   90  A    between atoms: _235  and  _236
REMARK   91  A    between atoms: _239  and  _241
REMARK   92  A    between atoms: _241  and  _242
REMARK   93  A    between atoms: _241  and  _244
REMARK   94  A    between atoms: _244  and  _245
REMARK   95  A    between atoms: _250  and  _252
REMARK   96  A    between atoms: _252  and  _253
REMARK   97  A    between atoms: _252  and  _255
REMARK   98  A    between atoms: _255  and  _256
REMARK   99  A    between atoms: _261  and  _263
REMARK  100  A    between atoms: _263  and  _264
REMARK  101  A    between atoms: _263  and  _266
REMARK  102  A    between atoms: _266  and  _267
REMARK  103  A    between atoms: _270  and  _272
REMARK  104  A    between atoms: _272  and  _273
REMARK  105  A    between atoms: _272  and  _275
REMARK  106  A    between atoms: _278  and  _280
REMARK  107  A    between atoms: _280  and  _281
REMARK  108  A    between atoms: _280  and  _283
REMARK  109  A    between atoms: _283  and  _284
REMARK  110  A    between atoms: _287  and  _289
REMARK  111  A    between atoms: _289  and  _290
REMARK  112  A    between atoms: _293  and  _295
REMARK  113  A    between atoms: _295  and  _296
REMARK  114  A    between atoms: _295  and  _298
REMARK  115  A    between atoms: _298  and  _299
REMARK  116  A    between atoms: _302  and  _304
REMARK  117  A    between atoms: _304  and  _305
REMARK  118  A    between atoms: _304  and  _307
REMARK  119  A    between atoms: _307  and  _308
REMARK  120  A    between atoms: _308  and  _309
REMARK  121  A    between atoms: _312  and  _314
REMARK  122  A    between atoms: _314  and  _315
REMARK  123  A    between atoms: _314  and  _317
REMARK  124  A    between atoms: _317  and  _318
REMARK  125  A    between atoms: _323  and  _325
REMARK  126  A    between atoms: _325  and  _326
REMARK  127  A    between atoms: _328  and  _330
REMARK  128  A    between atoms: _330  and  _331
REMARK  129  A    between atoms: _330  and  _333
REMARK  130  A    between atoms: _336  and  _338
REMARK  131  A    between atoms: _338  and  _339
REMARK  132  A    between atoms: _342  and  _344
REMARK  133  A    between atoms: _344  and  _345
REMARK  134  A    between atoms: _344  and  _347
REMARK  135  A    between atoms: _347  and  _348
REMARK  136  A    between atoms: _353  and  _355
REMARK  137  A    between atoms: _355  and  _356
REMARK  138  A    between atoms: _355  and  _358
REMARK  139  A    between atoms: _358  and  _359
REMARK  140  A    between atoms: _359  and  _360
REMARK  141  A    between atoms: _360  and  _361
REMARK  142  A    between atoms: _361  and  _362
REMARK  143  A    between atoms: _366  and  _368
REMARK  144  A    between atoms: _368  and  _369
REMARK  145  A    between atoms: _368  and  _371
REMARK  146  A    between atoms: _371  and  _372
REMARK  147  A    between atoms: _377  and  _379
REMARK  148  A    between atoms: _379  and  _380
REMARK  149  A    between atoms: _382  and  _384
REMARK  150  A    between atoms: _384  and  _385
REMARK  151  A    between atoms: _384  and  _387
REMARK  152  A    between atoms: _387  and  _388
REMARK  153  A    between atoms: _391  and  _393
REMARK  154  A    between atoms: _393  and  _394
REMARK  155  A    between atoms: _393  and  _396
REMARK  156  A    between atoms: _396  and  _397
REMARK  157  A    between atoms: _397  and  _398
REMARK  158  A    between atoms: _398  and  _399
REMARK  159  A    between atoms: _399  and  _400
REMARK  160  A    between atoms: _404  and  _406
REMARK  161  A    between atoms: _406  and  _407
REMARK  162  A    between atoms: _406  and  _409
REMARK  163  A    between atoms: _409  and  _410
REMARK  164  A    between atoms: _410  and  _411
REMARK  165  A    between atoms: _411  and  _412
REMARK  166  A    between atoms: _421  and  _423
REMARK  167  A    between atoms: _423  and  _424
REMARK  168  A    between atoms: _423  and  _426
REMARK  169  A    between atoms: _426  and  _427
REMARK  170  A    between atoms: _432  and  _433
REMARK  171  A    between atoms: _435  and  _437
REMARK  172  A    between atoms: _437  and  _438
REMARK  173  A    between atoms: _437  and  _440
REMARK  174  A    between atoms: _440  and  _441
REMARK  175  A    between atoms: _441  and  _442
REMARK  176  A    between atoms: _442  and  _443
REMARK  177  A    between atoms: _443  and  _444
REMARK  178  A    between atoms: _448  and  _450
REMARK  179  A    between atoms: _450  and  _451
REMARK  180  A    between atoms: _450  and  _453
REMARK  181  A    between atoms: _453  and  _454
REMARK  182  A    between atoms: _456  and  _458
REMARK  183  A    between atoms: _458  and  _459
REMARK  184  A    between atoms: _458  and  _461
REMARK  185  A    between atoms: _461  and  _462
REMARK  186  A    between atoms: _465  and  _467
REMARK  187  A    between atoms: _467  and  _468
REMARK  188  A    between atoms: _467  and  _470
REMARK  189  A    between atoms: _470  and  _471
REMARK  190  A    between atoms: _471  and  _472
REMARK  191  A    between atoms: _475  and  _477
REMARK  192  A    between atoms: _477  and  _478
REMARK  193  A    between atoms: _481  and  _483
REMARK  194  A    between atoms: _483  and  _484
REMARK  195  A    between atoms: _483  and  _486
REMARK  196  A    between atoms: _486  and  _487
REMARK  197  A    between atoms: _489  and  _491
REMARK  198  A    between atoms: _491  and  _492
REMARK  199  A    between atoms: _494  and  _496
REMARK  200  A    between atoms: _496  and  _497
REMARK  201  A    between atoms: _496  and  _499
REMARK  202  A    between atoms: _499  and  _500
REMARK  203  A    between atoms: _503  and  _505
REMARK  204  A    between atoms: _505  and  _506
REMARK  205  A    between atoms: _508  and  _510
REMARK  206  A    between atoms: _510  and  _511
REMARK  207  A    between atoms: _510  and  _513
REMARK  208  A    between atoms: _513  and  _514
REMARK  209  A    between atoms: _519  and  _521
REMARK  210  A    between atoms: _521  and  _522
REMARK  211  A    between atoms: _521  and  _524
REMARK  212  A    between atoms: _524  and  _525
REMARK  213  A    between atoms: _525  and  _526
REMARK  214  A    between atoms: _533  and  _534
REMARK  215  A    between atoms: _534  and  _550
REMARK  216  A    between atoms: _535  and  _537
REMARK  217  A    between atoms: _537  and  _538
REMARK  218  A    between atoms: _538  and  _539
REMARK  219  A    between atoms: _543  and  _545
REMARK  220  A    between atoms: _545  and  _546
REMARK  221  A    between atoms: _545  and  _553
REMARK  222  A    between atoms: _546  and  _547
REMARK  223  A    between atoms: _547  and  _548
REMARK  224  A    between atoms: _548  and  _549
REMARK  225  A    between atoms: _549  and  _550
REMARK  226  A    between atoms: _555  and  _557
REMARK  227  A    between atoms: _557  and  _558
REMARK  228  A    between atoms: _557  and  _560
REMARK  229  A    between atoms: _560  and  _561
REMARK  230  A    between atoms: _564  and  _566
REMARK  231  A    between atoms: _566  and  _567
REMARK  232  A    between atoms: _569  and  _571
REMARK  233  A    between atoms: _571  and  _572
REMARK  234  A    between atoms: _575  and  _577
REMARK  235  A    between atoms: _577  and  _578
REMARK  236  A    between atoms: _577  and  _580
REMARK  237  A    between atoms: _580  and  _581
REMARK  238  A    between atoms: _586  and  _587
REMARK                            x       y       z     vdW  Elec       q    Type
REMARK                         _______ _______ _______ _____ _____    ______ ____
ROOT
ATOM      1  CA  GLY A   7      24.054  22.472  24.058  0.00  0.00    +0.176 C 
ENDROOT
BRANCH   1   2
ATOM      2  C   GLY A   7      23.581  22.127  22.652  0.00  0.00    +0.243 C 
ATOM      3  O   GLY A   7      22.391  21.860  22.439  0.00  0.00    -0.273 OA
ATOM      4  N   ASN A   8      24.510  22.133  21.692  0.00  0.00    -0.297 N 
ATOM      5  H   ASN A   8      25.478  22.432  21.927  0.00  0.00    +0.150 HD
BRANCH   4   6
ATOM      6  CA  ASN A   8      24.202  21.728  20.309  0.00  0.00    +0.158 C 
BRANCH   6   7
ATOM      7  C   ASN A   8      23.399  20.420  20.191  0.00  0.00    +0.241 C 
ATOM      8  N   MET A   9      23.815  19.415  20.965  0.00  0.00    -0.297 N 
ATOM      9  H   MET A   9      24.624  19.578  21.598  0.00  0.00    +0.150 HD
ATOM     10  O   ASN A   8      22.421  20.334  19.418  0.00  0.00    -0.273 OA
BRANCH   8  11
ATOM     11  CA  MET A   9      23.185  18.096  20.964  0.00  0.00    +0.149 C 
BRANCH  11  12
ATOM     12  C   MET A   9      21.769  18.131  21.542  0.00  0.00    +0.241 C 
ATOM     13  N   UNK A  10      21.581  18.901  22.619  0.00  0.00    -0.298 N 
ATOM     14  H   UNK A  10      22.404  19.379  23.038  0.00  0.00    +0.150 HD
ATOM     15  O   MET A   9      20.863  17.491  21.004  0.00  0.00    -0.273 OA
BRANCH  13  16
ATOM     16  C   UNK A  10      20.260  19.101  23.237  0.00  0.00    +0.137 C 
BRANCH  16  17
ATOM     17  C   UNK A  10      19.217  19.658  22.250  0.00  0.00    +0.227 C 
ATOM     18  O   UNK A  10      18.063  19.202  22.226  0.00  0.00    -0.286 OA
ENDBRANCH  16  17
BRANCH  16  19
ATOM     19  C   UNK A  10      20.379  20.033  24.459  0.00  0.00    +0.028 C 
BRANCH  19  20
ATOM     20  C   UNK A  10      21.420  19.587  25.523  0.00  0.00    -0.000 C 
BRANCH  20  21
ATOM     21  C   UNK A  10      21.564  20.622  26.659  0.00  0.00    -0.023 C 
BRANCH  21  22
ATOM     22  C   UNK A  10      22.831  20.359  27.512  0.00  0.00    -0.082 C 
BRANCH  22  23
ATOM     23  N   UNK A  10      23.091  21.486  28.489  0.00  0.00    +0.384 N 
ATOM     24  H   UNK A  10      22.267  22.120  28.503  0.00  0.00    -0.084 HD
ATOM     25  H   UNK A  10      23.235  21.086  29.438  0.00  0.00    -0.084 HD
BRANCH  23  26
ATOM     26  C   UNK A  10      24.180  22.190  28.141  0.00  0.00    -0.070 C 
BRANCH  26  27
ATOM     27  C   UNK A  10      24.393  23.428  29.001  0.00  0.00    +0.064 C 
ATOM     28  C   UNK A  10      25.538  24.220  28.788  0.00  0.00    +0.010 C 
ATOM     29  C   UNK A  10      25.755  25.364  29.544  0.00  0.00    +0.093 C 
ATOM     30  N   UNK A  10      24.861  25.717  30.535  0.00  0.00    -0.246 NA
ATOM     31  C   UNK A  10      23.739  24.953  30.771  0.00  0.00    +0.094 C 
ATOM     32  C   UNK A  10      22.806  25.378  31.867  0.00  0.00    +0.055 C 
ATOM     33  C   UNK A  10      23.490  23.801  30.011  0.00  0.00    +0.188 C 
ATOM     34  O   UNK A  10      22.466  23.118  30.242  0.00  0.00    -0.290 OA
BRANCH  28  35
ATOM     35  C   UNK A  10      26.525  23.900  27.694  0.00  0.00    +0.178 C 
BRANCH  35  36
ATOM     36  O   UNK A  10      26.139  24.520  26.430  0.00  0.00    -0.266 OA
BRANCH  36  37
ATOM     37  P   UNK A  10      27.202  24.823  25.252  0.00  0.00    +0.533 P 
ATOM     38  O   UNK A  10      27.720  23.503  24.816  0.00  0.00    -0.115 OA
ATOM     39  O   UNK A  10      28.212  25.681  25.914  0.00  0.00    -0.115 OA
ATOM     40  O   UNK A  10      26.331  25.514  24.284  0.00  0.00    -0.222 OA
ENDBRANCH  36  37
ENDBRANCH  35  36
ENDBRANCH  28  35
ENDBRANCH  26  27
ENDBRANCH  23  26
ENDBRANCH  22  23
ENDBRANCH  21  22
ENDBRANCH  20  21
ENDBRANCH  19  20
ENDBRANCH  16  19
ENDBRANCH  13  16
ENDBRANCH  11  12
BRANCH  11  41
ATOM     41  CB  MET A   9      24.055  17.102  21.746  0.00  0.00    +0.041 C 
BRANCH  41  42
ATOM     42  CG  MET A   9      25.424  16.910  21.138  0.00  0.00    +0.060 C 
BRANCH  42  43
ATOM     43  SD  MET A   9      26.517  16.060  22.282  0.00  0.00    -0.139 S 
ATOM     44  CE  MET A   9      28.109  16.299  21.467  0.00  0.00    +0.069 C 
ENDBRANCH  42  43
ENDBRANCH  41  42
ENDBRANCH  11  41
ENDBRANCH   8  11
ENDBRANCH   6   7
BRANCH   6  45
ATOM     45  CB  ASN A   8      25.461  21.715  19.400  0.00  0.00    +0.114 C 
BRANCH  45  46
ATOM     46  CG  ASN A   8      26.637  20.879  19.953  0.00  0.00    +0.222 C 
ATOM     47  ND2 ASN A   8      26.443  20.212  21.079  0.00  0.00    -0.329 N 
ATOM     48 HD21 ASN A   8      25.527  20.272  21.568  0.00  0.00    +0.145 HD
ATOM     49 HD22 ASN A   8      27.207  19.628  21.475  0.00  0.00    +0.145 HD
ATOM     50  OD1 ASN A   8      27.724  20.836  19.331  0.00  0.00    -0.275 OA
ENDBRANCH  45  46
ENDBRANCH   6  45
ENDBRANCH   4   6
ENDBRANCH   1   2
BRANCH   1  52
ATOM     51  C   THR A   6      25.378  20.432  24.178  0.00  0.00    +0.243 C 
ATOM     52  N   GLY A   7      25.282  21.748  24.360  0.00  0.00    -0.295 N 
ATOM     53  H   GLY A   7      26.103  22.271  24.726  0.00  0.00    +0.150 HD
ATOM     54  O   THR A   6      24.404  19.707  23.900  0.00  0.00    -0.273 OA
BRANCH  51  55
ATOM     55  CA  THR A   6      26.777  19.841  24.320  0.00  0.00    +0.176 C 
BRANCH  55  57
ATOM     56  C   GLY A   5      28.829  20.565  23.166  0.00  0.00    +0.243 C 
ATOM     57  N   THR A   6      27.797  20.845  23.963  0.00  0.00    -0.295 N 
ATOM     58  H   THR A   6      27.708  21.807  24.347  0.00  0.00    +0.150 HD
ATOM     59  O   GLY A   5      29.106  19.422  22.800  0.00  0.00    -0.273 OA
BRANCH  56  60
ATOM     60  CA  GLY A   5      29.711  21.724  22.736  0.00  0.00    +0.176 C 
BRANCH  60  62
ATOM     61  C   SER A   4      31.487  20.634  21.458  0.00  0.00    +0.243 C 
ATOM     62  N   GLY A   5      31.064  21.202  22.586  0.00  0.00    -0.295 N 
ATOM     63  H   GLY A   5      31.722  21.276  23.388  0.00  0.00    +0.150 HD
ATOM     64  O   SER A   4      30.908  20.754  20.364  0.00  0.00    -0.273 OA
BRANCH  61  65
ATOM     65  CA  SER A   4      32.777  19.842  21.567  0.00  0.00    +0.178 C 
BRANCH  65  67
ATOM     66  C   ALA A   3      35.097  20.587  21.425  0.00  0.00    +0.241 C 
ATOM     67  N   SER A   4      33.891  20.700  21.984  0.00  0.00    -0.295 N 
ATOM     68  H   SER A   4      33.738  21.409  22.729  0.00  0.00    +0.150 HD
ATOM     69  O   ALA A   3      35.357  19.737  20.561  0.00  0.00    -0.273 OA
BRANCH  66  70
ATOM     70  CA  ALA A   3      36.178  21.586  21.904  0.00  0.00    +0.149 C 
ATOM     71  CB  ALA A   3      36.747  21.158  23.250  0.00  0.00    +0.031 C 
BRANCH  70  73
ATOM     72  C   GLU A   2      35.109  23.549  20.897  0.00  0.00    +0.241 C 
ATOM     73  N   ALA A   3      35.708  22.986  21.953  0.00  0.00    -0.297 N 
ATOM     74  H   ALA A   3      35.845  23.542  22.821  0.00  0.00    +0.150 HD
ATOM     75  O   GLU A   2      34.818  22.919  19.895  0.00  0.00    -0.273 OA
BRANCH  72  76
ATOM     76  CA  GLU A   2      34.787  25.035  20.956  0.00  0.00    +0.149 C 
BRANCH  76  79
ATOM     77  C   THR A   1      36.850  26.260  20.496  0.00  0.00    +0.241 C 
ATOM     78  O   THR A   1      37.197  26.140  21.669  0.00  0.00    -0.274 OA
ATOM     79  N   GLU A   2      35.692  25.769  20.048  0.00  0.00    -0.297 N 
ATOM     80  H   GLU A   2      35.425  25.904  19.052  0.00  0.00    +0.150 HD
BRANCH  77  81
ATOM     81  CA  THR A   1      37.762  26.990  19.505  0.00  0.00    +0.172 C 
BRANCH  81  82
ATOM     82  N   THR A   1      37.784  26.437  18.139  0.00  0.00    -0.236 NA
ATOM     83  H   THR A   1      36.958  26.562  17.520  0.00  0.00    +0.142 HD
ENDBRANCH  81  82
BRANCH  81  84
ATOM     84  CB  THR A   1      37.430  28.492  19.508  0.00  0.00    +0.135 C 
ATOM     85  CG2 THR A   1      38.430  29.272  18.645  0.00  0.00    +0.034 C 
BRANCH  84  86
ATOM     86  OG1 THR A   1      36.107  28.697  18.998  0.00  0.00    -0.383 OA
ATOM     87  HG1 THR A   1      36.054  28.351  18.072  0.00  0.00    +0.210 HD
ENDBRANCH  84  86
ENDBRANCH  81  84
ENDBRANCH  77  81
ENDBRANCH  76  79
BRANCH  76  88
ATOM     88  CB  GLU A   2      33.318  25.264  20.577  0.00  0.00    +0.041 C 
BRANCH  88  89
ATOM     89  CG  GLU A   2      32.335  24.749  21.621  0.00  0.00    +0.116 C 
BRANCH  89  90
ATOM     90  CD  GLU A   2      32.129  25.740  22.757  0.00  0.00    +0.365 C 
ATOM     91  OE2 GLU A   2      32.813  25.614  23.794  0.00  0.00    -0.246 OA
ATOM     92  OE1 GLU A   2      31.301  26.667  22.602  0.00  0.00    -0.246 OA
ENDBRANCH  89  90
ENDBRANCH  88  89
ENDBRANCH  76  88
ENDBRANCH  72  76
ENDBRANCH  70  73
ENDBRANCH  66  70
ENDBRANCH  65  67
BRANCH  65  93
ATOM     93  CB  SER A   4      32.608  18.669  22.539  0.00  0.00    +0.166 C 
BRANCH  93  94
ATOM     94  OG  SER A   4      31.438  17.911  22.262  0.00  0.00    -0.380 OA
ATOM     95  H   SER A   4      30.642  18.494  22.340  0.00  0.00    +0.211 HD
ENDBRANCH  93  94
ENDBRANCH  65  93
ENDBRANCH  61  65
ENDBRANCH  60  62
ENDBRANCH  56  60
ENDBRANCH  55  57
BRANCH  55  96
ATOM     96  CB  THR A   6      26.953  19.262  25.742  0.00  0.00    +0.137 C 
ATOM     97  CG2 THR A   6      28.216  18.405  25.849  0.00  0.00    +0.034 C 
BRANCH  96  98
ATOM     98  OG1 THR A   6      27.021  20.328  26.685  0.00  0.00    -0.382 OA
ATOM     99  HG1 THR A   6      27.134  19.955  27.595  0.00  0.00    +0.210 HD
ENDBRANCH  96  98
ENDBRANCH  55  96
ENDBRANCH  51  55
ENDBRANCH   1  52
TORSDOF 44
REMARK  Name = ../refined-set-2016/3l7b/3l7b_pocket.pdb
REMARK  238 active torsions:
REMARK  status: ('A' for Active; 'I' for Inactive)
REMARK    1  A    between atoms: _1  and  _3
REMARK    2  A    between atoms: _3  and  _4
REMARK    3  A    between atoms: _3  and  _6
REMARK    4  A    between atoms: _6  and  _7
REMARK    5  A    between atoms: _12  and  _13
REMARK    6  A    between atoms: _15  and  _17
REMARK    7  A    between atoms: _17  and  _18
REMARK    8  A    between atoms: _17  and  _20
REMARK    9  A    between atoms: _20  and  _21
REMARK   10  A    between atoms: _21  and  _22
REMARK   11  A    between atoms: _25  and  _27
REMARK   12  A    between atoms: _27  and  _28
REMARK   13  A    between atoms: _27  and  _30
REMARK   14  A    between atoms: _30  and  _31
REMARK   15  A    between atoms: _36  and  _37
REMARK   16  A    between atoms: _39  and  _41
REMARK   17  A    between atoms: _41  and  _42
REMARK   18  A    between atoms: _41  and  _44
REMARK   19  A    between atoms: _44  and  _45
REMARK   20  A    between atoms: _50  and  _52
REMARK   21  A    between atoms: _52  and  _53
REMARK   22  A    between atoms: _55  and  _57
REMARK   23  A    between atoms: _57  and  _58
REMARK   24  A    between atoms: _60  and  _62
REMARK   25  A    between atoms: _62  and  _63
REMARK   26  A    between atoms: _62  and  _65
REMARK   27  A    between atoms: _65  and  _66
REMARK   28  A    between atoms: _69  and  _71
REMARK   29  A    between atoms: _71  and  _72
REMARK   30  A    between atoms: _74  and  _76
REMARK   31  A    between atoms: _76  and  _77
REMARK   32  A    between atoms: _76  and  _79
REMARK   33  A    between atoms: _80  and  _81
REMARK   34  A    between atoms: _81  and  _82
REMARK   35  A    between atoms: _91  and  _93
REMARK   36  A    between atoms: _93  and  _94
REMARK   37  A    between atoms: _93  and  _96
REMARK   38  A    between atoms: _96  and  _97
REMARK   39  A    between atoms: _100  and  _102
REMARK   40  A    between atoms: _102  and  _103
REMARK   41  A    between atoms: _106  and  _108
REMARK   42  A    between atoms: _108  and  _109
REMARK   43  A    between atoms: _108  and  _111
REMARK   44  A    between atoms: _111  and  _112
REMARK   45  A    between atoms: _118  and  _120
REMARK   46  A    between atoms: _120  and  _121
REMARK   47  A    between atoms: _120  and  _123
REMARK   48  A    between atoms: _123  and  _124
REMARK   49  A    between atoms: _129  and  _131
REMARK   50  A    between atoms: _131  and  _132
REMARK   51  A    between atoms: _131  and  _134
REMARK   52  A    between atoms: _134  and  _135
REMARK   53  A    between atoms: _138  and  _140
REMARK   54  A    between atoms: _140  and  _141
REMARK   55  A    between atoms: _140  and  _143
REMARK   56  A    between atoms: _143  and  _144
REMARK   57  A    between atoms: _149  and  _151
REMARK   58  A    between atoms: _151  and  _152
REMARK   59  A    between atoms: _151  and  _154
REMARK   60  A    between atoms: _154  and  _155
REMARK   61  A    between atoms: _161  and  _163
REMARK   62  A    between atoms: _163  and  _164
REMARK   63  A    between atoms: _163  and  _166
REMARK   64  A    between atoms: _166  and  _167
REMARK   65  A    between atoms: _173  and  _175
REMARK   66  A    between atoms: _175  and  _176
REMARK   67  A    between atoms: _175  and  _178
REMARK   68  A    between atoms: _178  and  _179
REMARK   69  A    between atoms: _179  and  _180
REMARK   70  A    between atoms: _180  and  _181
REMARK   71  A    between atoms: _190  and  _192
REMARK   72  A    between atoms: _192  and  _193
REMARK   73  A    between atoms: _192  and  _195
REMARK   74  A    between atoms: _195  and  _196
REMARK   75  A    between atoms: _201  and  _203
REMARK   76  A    between atoms: _203  and  _204
REMARK   77  A    between atoms: _203  and  _206
REMARK   78  A    between atoms: _206  and  _207
REMARK   79  A    between atoms: _210  and  _212
REMARK   80  A    between atoms: _212  and  _213
REMARK   81  A    between atoms: _212  and  _215
REMARK   82  A    between atoms: _215  and  _216
REMARK   83  A    between atoms: _219  and  _221
REMARK   84  A    between atoms: _221  and  _222
REMARK   85  A    between atoms: _221  and  _224
REMARK   86  A    between atoms: _224  and  _225
REMARK   87  A    between atoms: _230  and  _232
REMARK   88  A    between atoms: _232  and  _233
REMARK   89  A    between atoms: _232  and  _235
REMARK   90  A    between atoms: _235  and  _236
REMARK   91  A    between atoms: _239  and  _241
REMARK   92  A    between atoms: _241  and  _242
REMARK   93  A    between atoms: _241  and  _244
REMARK   94  A    between atoms: _244  and  _245
REMARK   95  A    between atoms: _250  and  _252
REMARK   96  A    between atoms: _252  and  _253
REMARK   97  A    between atoms: _252  and  _255
REMARK   98  A    between atoms: _255  and  _256
REMARK   99  A    between atoms: _261  and  _263
REMARK  100  A    between atoms: _263  and  _264
REMARK  101  A    between atoms: _263  and  _266
REMARK  102  A    between atoms: _266  and  _267
REMARK  103  A    between atoms: _270  and  _272
REMARK  104  A    between atoms: _272  and  _273
REMARK  105  A    between atoms: _272  and  _275
REMARK  106  A    between atoms: _278  and  _280
REMARK  107  A    between atoms: _280  and  _281
REMARK  108  A    between atoms: _280  and  _283
REMARK  109  A    between atoms: _283  and  _284
REMARK  110  A    between atoms: _287  and  _289
REMARK  111  A    between atoms: _289  and  _290
REMARK  112  A    between atoms: _293  and  _295
REMARK  113  A    between atoms: _295  and  _296
REMARK  114  A    between atoms: _295  and  _298
REMARK  115  A    between atoms: _298  and  _299
REMARK  116  A    between atoms: _302  and  _304
REMARK  117  A    between atoms: _304  and  _305
REMARK  118  A    between atoms: _304  and  _307
REMARK  119  A    between atoms: _307  and  _308
REMARK  120  A    between atoms: _308  and  _309
REMARK  121  A    between atoms: _312  and  _314
REMARK  122  A    between atoms: _314  and  _315
REMARK  123  A    between atoms: _314  and  _317
REMARK  124  A    between atoms: _317  and  _318
REMARK  125  A    between atoms: _323  and  _325
REMARK  126  A    between atoms: _325  and  _326
REMARK  127  A    between atoms: _328  and  _330
REMARK  128  A    between atoms: _330  and  _331
REMARK  129  A    between atoms: _330  and  _333
REMARK  130  A    between atoms: _336  and  _338
REMARK  131  A    between atoms: _338  and  _339
REMARK  132  A    between atoms: _342  and  _344
REMARK  133  A    between atoms: _344  and  _345
REMARK  134  A    between atoms: _344  and  _347
REMARK  135  A    between atoms: _347  and  _348
REMARK  136  A    between atoms: _353  and  _355
REMARK  137  A    between atoms: _355  and  _356
REMARK  138  A    between atoms: _355  and  _358
REMARK  139  A    between atoms: _358  and  _359
REMARK  140  A    between atoms: _359  and  _360
REMARK  141  A    between atoms: _360  and  _361
REMARK  142  A    between atoms: _361  and  _362
REMARK  143  A    between atoms: _366  and  _368
REMARK  144  A    between atoms: _368  and  _369
REMARK  145  A    between atoms: _368  and  _371
REMARK  146  A    between atoms: _371  and  _372
REMARK  147  A    between atoms: _377  and  _379
REMARK  148  A    between atoms: _379  and  _380
REMARK  149  A    between atoms: _382  and  _384
REMARK  150  A    between atoms: _384  and  _385
REMARK  151  A    between atoms: _384  and  _387
REMARK  152  A    between atoms: _387  and  _388
REMARK  153  A    between atoms: _391  and  _393
REMARK  154  A    between atoms: _393  and  _394
REMARK  155  A    between atoms: _393  and  _396
REMARK  156  A    between atoms: _396  and  _397
REMARK  157  A    between atoms: _397  and  _398
REMARK  158  A    between atoms: _398  and  _399
REMARK  159  A    between atoms: _399  and  _400
REMARK  160  A    between atoms: _404  and  _406
REMARK  161  A    between atoms: _406  and  _407
REMARK  162  A    between atoms: _406  and  _409
REMARK  163  A    between atoms: _409  and  _410
REMARK  164  A    between atoms: _410  and  _411
REMARK  165  A    between atoms: _411  and  _412
REMARK  166  A    between atoms: _421  and  _423
REMARK  167  A    between atoms: _423  and  _424
REMARK  168  A    between atoms: _423  and  _426
REMARK  169  A    between atoms: _426  and  _427
REMARK  170  A    between atoms: _432  and  _433
REMARK  171  A    between atoms: _435  and  _437
REMARK  172  A    between atoms: _437  and  _438
REMARK  173  A    between atoms: _437  and  _440
REMARK  174  A    between atoms: _440  and  _441
REMARK  175  A    between atoms: _441  and  _442
REMARK  176  A    between atoms: _442  and  _443
REMARK  177  A    between atoms: _443  and  _444
REMARK  178  A    between atoms: _448  and  _450
REMARK  179  A    between atoms: _450  and  _451
REMARK  180  A    between atoms: _450  and  _453
REMARK  181  A    between atoms: _453  and  _454
REMARK  182  A    between atoms: _456  and  _458
REMARK  183  A    between atoms: _458  and  _459
REMARK  184  A    between atoms: _458  and  _461
REMARK  185  A    between atoms: _461  and  _462
REMARK  186  A    between atoms: _465  and  _467
REMARK  187  A    between atoms: _467  and  _468
REMARK  188  A    between atoms: _467  and  _470
REMARK  189  A    between atoms: _470  and  _471
REMARK  190  A    between atoms: _471  and  _472
REMARK  191  A    between atoms: _475  and  _477
REMARK  192  A    between atoms: _477  and  _478
REMARK  193  A    between atoms: _481  and  _483
REMARK  194  A    between atoms: _483  and  _484
REMARK  195  A    between atoms: _483  and  _486
REMARK  196  A    between atoms: _486  and  _487
REMARK  197  A    between atoms: _489  and  _491
REMARK  198  A    between atoms: _491  and  _492
REMARK  199  A    between atoms: _494  and  _496
REMARK  200  A    between atoms: _496  and  _497
REMARK  201  A    between atoms: _496  and  _499
REMARK  202  A    between atoms: _499  and  _500
REMARK  203  A    between atoms: _503  and  _505
REMARK  204  A    between atoms: _505  and  _506
REMARK  205  A    between atoms: _508  and  _510
REMARK  206  A    between atoms: _510  and  _511
REMARK  207  A    between atoms: _510  and  _513
REMARK  208  A    between atoms: _513  and  _514
REMARK  209  A    between atoms: _519  and  _521
REMARK  210  A    between atoms: _521  and  _522
REMARK  211  A    between atoms: _521  and  _524
REMARK  212  A    between atoms: _524  and  _525
REMARK  213  A    between atoms: _525  and  _526
REMARK  214  A    between atoms: _533  and  _534
REMARK  215  A    between atoms: _534  and  _550
REMARK  216  A    between atoms: _535  and  _537
REMARK  217  A    between atoms: _537  and  _538
REMARK  218  A    between atoms: _538  and  _539
REMARK  219  A    between atoms: _543  and  _545
REMARK  220  A    between atoms: _545  and  _546
REMARK  221  A    between atoms: _545  and  _553
REMARK  222  A    between atoms: _546  and  _547
REMARK  223  A    between atoms: _547  and  _548
REMARK  224  A    between atoms: _548  and  _549
REMARK  225  A    between atoms: _549  and  _550
REMARK  226  A    between atoms: _555  and  _557
REMARK  227  A    between atoms: _557  and  _558
REMARK  228  A    between atoms: _557  and  _560
REMARK  229  A    between atoms: _560  and  _561
REMARK  230  A    between atoms: _564  and  _566
REMARK  231  A    between atoms: _566  and  _567
REMARK  232  A    between atoms: _569  and  _571
REMARK  233  A    between atoms: _571  and  _572
REMARK  234  A    between atoms: _575  and  _577
REMARK  235  A    between atoms: _577  and  _578
REMARK  236  A    between atoms: _577  and  _580
REMARK  237  A    between atoms: _580  and  _581
REMARK  238  A    between atoms: _586  and  _587
REMARK                            x       y       z     vdW  Elec       q    Type
REMARK                         _______ _______ _______ _____ _____    ______ ____
ROOT
ATOM      1  C   ASP A   1      33.071  22.251  15.961  0.00  0.00    +0.239 C 
ATOM      2  N   GLY A   2      33.973  21.702  16.772  0.00  0.00    -0.296 N 
ATOM      3  H   GLY A   2      34.978  21.941  16.655  0.00  0.00    +0.150 HD
ATOM      4  O   ASP A   1      31.875  21.925  15.967  0.00  0.00    -0.274 OA
ENDROOT
BRANCH   1   5
ATOM      5  CA  ASP A   1      33.580  23.302  14.977  0.00  0.00    +0.156 C 
BRANCH   5   6
ATOM      6  N   ASP A   1      32.797  23.256  13.738  0.00  0.00    -0.238 NA
ATOM      7  H   ASP A   1      31.759  23.254  13.809  0.00  0.00    +0.142 HD
ENDBRANCH   5   6
BRANCH   5   8
ATOM      8  CB  ASP A   1      33.471  24.693  15.610  0.00  0.00    +0.140 C 
BRANCH   8   9
ATOM      9  CG  ASP A   1      34.575  24.967  16.625  0.00  0.00    +0.367 C 
ATOM     10  OD2 ASP A   1      34.400  25.874  17.454  0.00  0.00    -0.246 OA
ATOM     11  OD1 ASP A   1      35.604  24.255  16.605  0.00  0.00    -0.246 OA
ENDBRANCH   8   9
ENDBRANCH   5   8
ENDBRANCH   1   5
BRANCH   2  12
ATOM     12  CA  GLY A   2      33.571  20.765  17.828  0.00  0.00    +0.176 C 
BRANCH  12  13
ATOM     13  C   GLY A   2      32.696  19.641  17.304  0.00  0.00    +0.243 C 
ATOM     14  N   ALA A   3      31.647  19.313  18.050  0.00  0.00    -0.298 N 
ATOM     15  H   ALA A   3      31.428  19.860  18.907  0.00  0.00    +0.150 HD
ATOM     16  O   GLY A   2      32.953  19.086  16.228  0.00  0.00    -0.273 OA
BRANCH  14  17
ATOM     17  CA  ALA A   3      30.800  18.186  17.670  0.00  0.00    +0.137 C 
ATOM     18  CB  ALA A   3      30.026  17.641  18.869  0.00  0.00    +0.030 C 
BRANCH  17  19
ATOM     19  C   ALA A   3      29.851  18.522  16.511  0.00  0.00    +0.227 C 
ATOM     20  O   ALA A   3      29.240  17.606  15.958  0.00  0.00    -0.286 OA
ENDBRANCH  17  19
ENDBRANCH  14  17
ENDBRANCH  12  13
ENDBRANCH   2  12
TORSDOF 8
REMARK  Name = ../refined-set-2016/3l7b/3l7b_pocket.pdb
REMARK  238 active torsions:
REMARK  status: ('A' for Active; 'I' for Inactive)
REMARK    1  A    between atoms: _1  and  _3
REMARK    2  A    between atoms: _3  and  _4
REMARK    3  A    between atoms: _3  and  _6
REMARK    4  A    between atoms: _6  and  _7
REMARK    5  A    between atoms: _12  and  _13
REMARK    6  A    between atoms: _15  and  _17
REMARK    7  A    between atoms: _17  and  _18
REMARK    8  A    between atoms: _17  and  _20
REMARK    9  A    between atoms: _20  and  _21
REMARK   10  A    between atoms: _21  and  _22
REMARK   11  A    between atoms: _25  and  _27
REMARK   12  A    between atoms: _27  and  _28
REMARK   13  A    between atoms: _27  and  _30
REMARK   14  A    between atoms: _30  and  _31
REMARK   15  A    between atoms: _36  and  _37
REMARK   16  A    between atoms: _39  and  _41
REMARK   17  A    between atoms: _41  and  _42
REMARK   18  A    between atoms: _41  and  _44
REMARK   19  A    between atoms: _44  and  _45
REMARK   20  A    between atoms: _50  and  _52
REMARK   21  A    between atoms: _52  and  _53
REMARK   22  A    between atoms: _55  and  _57
REMARK   23  A    between atoms: _57  and  _58
REMARK   24  A    between atoms: _60  and  _62
REMARK   25  A    between atoms: _62  and  _63
REMARK   26  A    between atoms: _62  and  _65
REMARK   27  A    between atoms: _65  and  _66
REMARK   28  A    between atoms: _69  and  _71
REMARK   29  A    between atoms: _71  and  _72
REMARK   30  A    between atoms: _74  and  _76
REMARK   31  A    between atoms: _76  and  _77
REMARK   32  A    between atoms: _76  and  _79
REMARK   33  A    between atoms: _80  and  _81
REMARK   34  A    between atoms: _81  and  _82
REMARK   35  A    between atoms: _91  and  _93
REMARK   36  A    between atoms: _93  and  _94
REMARK   37  A    between atoms: _93  and  _96
REMARK   38  A    between atoms: _96  and  _97
REMARK   39  A    between atoms: _100  and  _102
REMARK   40  A    between atoms: _102  and  _103
REMARK   41  A    between atoms: _106  and  _108
REMARK   42  A    between atoms: _108  and  _109
REMARK   43  A    between atoms: _108  and  _111
REMARK   44  A    between atoms: _111  and  _112
REMARK   45  A    between atoms: _118  and  _120
REMARK   46  A    between atoms: _120  and  _121
REMARK   47  A    between atoms: _120  and  _123
REMARK   48  A    between atoms: _123  and  _124
REMARK   49  A    between atoms: _129  and  _131
REMARK   50  A    between atoms: _131  and  _132
REMARK   51  A    between atoms: _131  and  _134
REMARK   52  A    between atoms: _134  and  _135
REMARK   53  A    between atoms: _138  and  _140
REMARK   54  A    between atoms: _140  and  _141
REMARK   55  A    between atoms: _140  and  _143
REMARK   56  A    between atoms: _143  and  _144
REMARK   57  A    between atoms: _149  and  _151
REMARK   58  A    between atoms: _151  and  _152
REMARK   59  A    between atoms: _151  and  _154
REMARK   60  A    between atoms: _154  and  _155
REMARK   61  A    between atoms: _161  and  _163
REMARK   62  A    between atoms: _163  and  _164
REMARK   63  A    between atoms: _163  and  _166
REMARK   64  A    between atoms: _166  and  _167
REMARK   65  A    between atoms: _173  and  _175
REMARK   66  A    between atoms: _175  and  _176
REMARK   67  A    between atoms: _175  and  _178
REMARK   68  A    between atoms: _178  and  _179
REMARK   69  A    between atoms: _179  and  _180
REMARK   70  A    between atoms: _180  and  _181
REMARK   71  A    between atoms: _190  and  _192
REMARK   72  A    between atoms: _192  and  _193
REMARK   73  A    between atoms: _192  and  _195
REMARK   74  A    between atoms: _195  and  _196
REMARK   75  A    between atoms: _201  and  _203
REMARK   76  A    between atoms: _203  and  _204
REMARK   77  A    between atoms: _203  and  _206
REMARK   78  A    between atoms: _206  and  _207
REMARK   79  A    between atoms: _210  and  _212
REMARK   80  A    between atoms: _212  and  _213
REMARK   81  A    between atoms: _212  and  _215
REMARK   82  A    between atoms: _215  and  _216
REMARK   83  A    between atoms: _219  and  _221
REMARK   84  A    between atoms: _221  and  _222
REMARK   85  A    between atoms: _221  and  _224
REMARK   86  A    between atoms: _224  and  _225
REMARK   87  A    between atoms: _230  and  _232
REMARK   88  A    between atoms: _232  and  _233
REMARK   89  A    between atoms: _232  and  _235
REMARK   90  A    between atoms: _235  and  _236
REMARK   91  A    between atoms: _239  and  _241
REMARK   92  A    between atoms: _241  and  _242
REMARK   93  A    between atoms: _241  and  _244
REMARK   94  A    between atoms: _244  and  _245
REMARK   95  A    between atoms: _250  and  _252
REMARK   96  A    between atoms: _252  and  _253
REMARK   97  A    between atoms: _252  and  _255
REMARK   98  A    between atoms: _255  and  _256
REMARK   99  A    between atoms: _261  and  _263
REMARK  100  A    between atoms: _263  and  _264
REMARK  101  A    between atoms: _263  and  _266
REMARK  102  A    between atoms: _266  and  _267
REMARK  103  A    between atoms: _270  and  _272
REMARK  104  A    between atoms: _272  and  _273
REMARK  105  A    between atoms: _272  and  _275
REMARK  106  A    between atoms: _278  and  _280
REMARK  107  A    between atoms: _280  and  _281
REMARK  108  A    between atoms: _280  and  _283
REMARK  109  A    between atoms: _283  and  _284
REMARK  110  A    between atoms: _287  and  _289
REMARK  111  A    between atoms: _289  and  _290
REMARK  112  A    between atoms: _293  and  _295
REMARK  113  A    between atoms: _295  and  _296
REMARK  114  A    between atoms: _295  and  _298
REMARK  115  A    between atoms: _298  and  _299
REMARK  116  A    between atoms: _302  and  _304
REMARK  117  A    between atoms: _304  and  _305
REMARK  118  A    between atoms: _304  and  _307
REMARK  119  A    between atoms: _307  and  _308
REMARK  120  A    between atoms: _308  and  _309
REMARK  121  A    between atoms: _312  and  _314
REMARK  122  A    between atoms: _314  and  _315
REMARK  123  A    between atoms: _314  and  _317
REMARK  124  A    between atoms: _317  and  _318
REMARK  125  A    between atoms: _323  and  _325
REMARK  126  A    between atoms: _325  and  _326
REMARK  127  A    between atoms: _328  and  _330
REMARK  128  A    between atoms: _330  and  _331
REMARK  129  A    between atoms: _330  and  _333
REMARK  130  A    between atoms: _336  and  _338
REMARK  131  A    between atoms: _338  and  _339
REMARK  132  A    between atoms: _342  and  _344
REMARK  133  A    between atoms: _344  and  _345
REMARK  134  A    between atoms: _344  and  _347
REMARK  135  A    between atoms: _347  and  _348
REMARK  136  A    between atoms: _353  and  _355
REMARK  137  A    between atoms: _355  and  _356
REMARK  138  A    between atoms: _355  and  _358
REMARK  139  A    between atoms: _358  and  _359
REMARK  140  A    between atoms: _359  and  _360
REMARK  141  A    between atoms: _360  and  _361
REMARK  142  A    between atoms: _361  and  _362
REMARK  143  A    between atoms: _366  and  _368
REMARK  144  A    between atoms: _368  and  _369
REMARK  145  A    between atoms: _368  and  _371
REMARK  146  A    between atoms: _371  and  _372
REMARK  147  A    between atoms: _377  and  _379
REMARK  148  A    between atoms: _379  and  _380
REMARK  149  A    between atoms: _382  and  _384
REMARK  150  A    between atoms: _384  and  _385
REMARK  151  A    between atoms: _384  and  _387
REMARK  152  A    between atoms: _387  and  _388
REMARK  153  A    between atoms: _391  and  _393
REMARK  154  A    between atoms: _393  and  _394
REMARK  155  A    between atoms: _393  and  _396
REMARK  156  A    between atoms: _396  and  _397
REMARK  157  A    between atoms: _397  and  _398
REMARK  158  A    between atoms: _398  and  _399
REMARK  159  A    between atoms: _399  and  _400
REMARK  160  A    between atoms: _404  and  _406
REMARK  161  A    between atoms: _406  and  _407
REMARK  162  A    between atoms: _406  and  _409
REMARK  163  A    between atoms: _409  and  _410
REMARK  164  A    between atoms: _410  and  _411
REMARK  165  A    between atoms: _411  and  _412
REMARK  166  A    between atoms: _421  and  _423
REMARK  167  A    between atoms: _423  and  _424
REMARK  168  A    between atoms: _423  and  _426
REMARK  169  A    between atoms: _426  and  _427
REMARK  170  A    between atoms: _432  and  _433
REMARK  171  A    between atoms: _435  and  _437
REMARK  172  A    between atoms: _437  and  _438
REMARK  173  A    between atoms: _437  and  _440
REMARK  174  A    between atoms: _440  and  _441
REMARK  175  A    between atoms: _441  and  _442
REMARK  176  A    between atoms: _442  and  _443
REMARK  177  A    between atoms: _443  and  _444
REMARK  178  A    between atoms: _448  and  _450
REMARK  179  A    between atoms: _450  and  _451
REMARK  180  A    between atoms: _450  and  _453
REMARK  181  A    between atoms: _453  and  _454
REMARK  182  A    between atoms: _456  and  _458
REMARK  183  A    between atoms: _458  and  _459
REMARK  184  A    between atoms: _458  and  _461
REMARK  185  A    between atoms: _461  and  _462
REMARK  186  A    between atoms: _465  and  _467
REMARK  187  A    between atoms: _467  and  _468
REMARK  188  A    between atoms: _467  and  _470
REMARK  189  A    between atoms: _470  and  _471
REMARK  190  A    between atoms: _471  and  _472
REMARK  191  A    between atoms: _475  and  _477
REMARK  192  A    between atoms: _477  and  _478
REMARK  193  A    between atoms: _481  and  _483
REMARK  194  A    between atoms: _483  and  _484
REMARK  195  A    between atoms: _483  and  _486
REMARK  196  A    between atoms: _486  and  _487
REMARK  197  A    between atoms: _489  and  _491
REMARK  198  A    between atoms: _491  and  _492
REMARK  199  A    between atoms: _494  and  _496
REMARK  200  A    between atoms: _496  and  _497
REMARK  201  A    between atoms: _496  and  _499
REMARK  202  A    between atoms: _499  and  _500
REMARK  203  A    between atoms: _503  and  _505
REMARK  204  A    between atoms: _505  and  _506
REMARK  205  A    between atoms: _508  and  _510
REMARK  206  A    between atoms: _510  and  _511
REMARK  207  A    between atoms: _510  and  _513
REMARK  208  A    between atoms: _513  and  _514
REMARK  209  A    between atoms: _519  and  _521
REMARK  210  A    between atoms: _521  and  _522
REMARK  211  A    between atoms: _521  and  _524
REMARK  212  A    between atoms: _524  and  _525
REMARK  213  A    between atoms: _525  and  _526
REMARK  214  A    between atoms: _533  and  _534
REMARK  215  A    between atoms: _534  and  _550
REMARK  216  A    between atoms: _535  and  _537
REMARK  217  A    between atoms: _537  and  _538
REMARK  218  A    between atoms: _538  and  _539
REMARK  219  A    between atoms: _543  and  _545
REMARK  220  A    between atoms: _545  and  _546
REMARK  221  A    between atoms: _545  and  _553
REMARK  222  A    between atoms: _546  and  _547
REMARK  223  A    between atoms: _547  and  _548
REMARK  224  A    between atoms: _548  and  _549
REMARK  225  A    between atoms: _549  and  _550
REMARK  226  A    between atoms: _555  and  _557
REMARK  227  A    between atoms: _557  and  _558
REMARK  228  A    between atoms: _557  and  _560
REMARK  229  A    between atoms: _560  and  _561
REMARK  230  A    between atoms: _564  and  _566
REMARK  231  A    between atoms: _566  and  _567
REMARK  232  A    between atoms: _569  and  _571
REMARK  233  A    between atoms: _571  and  _572
REMARK  234  A    between atoms: _575  and  _577
REMARK  235  A    between atoms: _577  and  _578
REMARK  236  A    between atoms: _577  and  _580
REMARK  237  A    between atoms: _580  and  _581
REMARK  238  A    between atoms: _586  and  _587
REMARK                            x       y       z     vdW  Elec       q    Type
REMARK                         _______ _______ _______ _____ _____    ______ ____
ROOT
ATOM      1  CG  TYR A   1      34.757   7.547  29.058  0.00  0.00    -0.020 A 
ATOM      2  CD2 TYR A   1      35.893   8.178  29.576  0.00  0.00    -0.001 A 
ATOM      3  CE2 TYR A   1      36.133   9.537  29.349  0.00  0.00    +0.036 A 
ATOM      4  CZ  TYR A   1      35.234  10.273  28.610  0.00  0.00    +0.134 A 
ATOM      5  CE1 TYR A   1      34.088   9.680  28.091  0.00  0.00    +0.036 A 
ATOM      6  CD1 TYR A   1      33.851   8.314  28.330  0.00  0.00    -0.001 A 
ENDROOT
BRANCH   4   7
ATOM      7  OH  TYR A   1      35.483  11.614  28.395  0.00  0.00    -0.506 OA
ATOM      8  HH  TYR A   1      35.548  11.785  27.422  0.00  0.00    +0.292 HD
ENDBRANCH   4   7
BRANCH   1   9
ATOM      9  CB  TYR A   1      34.489   6.086  29.346  0.00  0.00    +0.051 C 
BRANCH   9  10
ATOM     10  CA  TYR A   1      35.023   5.074  28.329  0.00  0.00    +0.137 C 
BRANCH  10  11
ATOM     11  N   TYR A   1      34.112   4.949  27.177  0.00  0.00    -0.239 NA
ATOM     12  H   TYR A   1      33.285   5.576  27.106  0.00  0.00    +0.142 HD
ENDBRANCH  10  11
BRANCH  10  13
ATOM     13  C   TYR A   1      35.187   3.739  29.059  0.00  0.00    +0.224 C 
ATOM     14  O   TYR A   1      36.298   3.352  29.414  0.00  0.00    -0.287 OA
ENDBRANCH  10  13
ENDBRANCH   9  10
ENDBRANCH   1   9
TORSDOF 5
REMARK  Name = ../refined-set-2016/3l7b/3l7b_pocket.pdb
REMARK  238 active torsions:
REMARK  status: ('A' for Active; 'I' for Inactive)
REMARK    1  A    between atoms: _1  and  _3
REMARK    2  A    between atoms: _3  and  _4
REMARK    3  A    between atoms: _3  and  _6
REMARK    4  A    between atoms: _6  and  _7
REMARK    5  A    between atoms: _12  and  _13
REMARK    6  A    between atoms: _15  and  _17
REMARK    7  A    between atoms: _17  and  _18
REMARK    8  A    between atoms: _17  and  _20
REMARK    9  A    between atoms: _20  and  _21
REMARK   10  A    between atoms: _21  and  _22
REMARK   11  A    between atoms: _25  and  _27
REMARK   12  A    between atoms: _27  and  _28
REMARK   13  A    between atoms: _27  and  _30
REMARK   14  A    between atoms: _30  and  _31
REMARK   15  A    between atoms: _36  and  _37
REMARK   16  A    between atoms: _39  and  _41
REMARK   17  A    between atoms: _41  and  _42
REMARK   18  A    between atoms: _41  and  _44
REMARK   19  A    between atoms: _44  and  _45
REMARK   20  A    between atoms: _50  and  _52
REMARK   21  A    between atoms: _52  and  _53
REMARK   22  A    between atoms: _55  and  _57
REMARK   23  A    between atoms: _57  and  _58
REMARK   24  A    between atoms: _60  and  _62
REMARK   25  A    between atoms: _62  and  _63
REMARK   26  A    between atoms: _62  and  _65
REMARK   27  A    between atoms: _65  and  _66
REMARK   28  A    between atoms: _69  and  _71
REMARK   29  A    between atoms: _71  and  _72
REMARK   30  A    between atoms: _74  and  _76
REMARK   31  A    between atoms: _76  and  _77
REMARK   32  A    between atoms: _76  and  _79
REMARK   33  A    between atoms: _80  and  _81
REMARK   34  A    between atoms: _81  and  _82
REMARK   35  A    between atoms: _91  and  _93
REMARK   36  A    between atoms: _93  and  _94
REMARK   37  A    between atoms: _93  and  _96
REMARK   38  A    between atoms: _96  and  _97
REMARK   39  A    between atoms: _100  and  _102
REMARK   40  A    between atoms: _102  and  _103
REMARK   41  A    between atoms: _106  and  _108
REMARK   42  A    between atoms: _108  and  _109
REMARK   43  A    between atoms: _108  and  _111
REMARK   44  A    between atoms: _111  and  _112
REMARK   45  A    between atoms: _118  and  _120
REMARK   46  A    between atoms: _120  and  _121
REMARK   47  A    between atoms: _120  and  _123
REMARK   48  A    between atoms: _123  and  _124
REMARK   49  A    between atoms: _129  and  _131
REMARK   50  A    between atoms: _131  and  _132
REMARK   51  A    between atoms: _131  and  _134
REMARK   52  A    between atoms: _134  and  _135
REMARK   53  A    between atoms: _138  and  _140
REMARK   54  A    between atoms: _140  and  _141
REMARK   55  A    between atoms: _140  and  _143
REMARK   56  A    between atoms: _143  and  _144
REMARK   57  A    between atoms: _149  and  _151
REMARK   58  A    between atoms: _151  and  _152
REMARK   59  A    between atoms: _151  and  _154
REMARK   60  A    between atoms: _154  and  _155
REMARK   61  A    between atoms: _161  and  _163
REMARK   62  A    between atoms: _163  and  _164
REMARK   63  A    between atoms: _163  and  _166
REMARK   64  A    between atoms: _166  and  _167
REMARK   65  A    between atoms: _173  and  _175
REMARK   66  A    between atoms: _175  and  _176
REMARK   67  A    between atoms: _175  and  _178
REMARK   68  A    between atoms: _178  and  _179
REMARK   69  A    between atoms: _179  and  _180
REMARK   70  A    between atoms: _180  and  _181
REMARK   71  A    between atoms: _190  and  _192
REMARK   72  A    between atoms: _192  and  _193
REMARK   73  A    between atoms: _192  and  _195
REMARK   74  A    between atoms: _195  and  _196
REMARK   75  A    between atoms: _201  and  _203
REMARK   76  A    between atoms: _203  and  _204
REMARK   77  A    between atoms: _203  and  _206
REMARK   78  A    between atoms: _206  and  _207
REMARK   79  A    between atoms: _210  and  _212
REMARK   80  A    between atoms: _212  and  _213
REMARK   81  A    between atoms: _212  and  _215
REMARK   82  A    between atoms: _215  and  _216
REMARK   83  A    between atoms: _219  and  _221
REMARK   84  A    between atoms: _221  and  _222
REMARK   85  A    between atoms: _221  and  _224
REMARK   86  A    between atoms: _224  and  _225
REMARK   87  A    between atoms: _230  and  _232
REMARK   88  A    between atoms: _232  and  _233
REMARK   89  A    between atoms: _232  and  _235
REMARK   90  A    between atoms: _235  and  _236
REMARK   91  A    between atoms: _239  and  _241
REMARK   92  A    between atoms: _241  and  _242
REMARK   93  A    between atoms: _241  and  _244
REMARK   94  A    between atoms: _244  and  _245
REMARK   95  A    between atoms: _250  and  _252
REMARK   96  A    between atoms: _252  and  _253
REMARK   97  A    between atoms: _252  and  _255
REMARK   98  A    between atoms: _255  and  _256
REMARK   99  A    between atoms: _261  and  _263
REMARK  100  A    between atoms: _263  and  _264
REMARK  101  A    between atoms: _263  and  _266
REMARK  102  A    between atoms: _266  and  _267
REMARK  103  A    between atoms: _270  and  _272
REMARK  104  A    between atoms: _272  and  _273
REMARK  105  A    between atoms: _272  and  _275
REMARK  106  A    between atoms: _278  and  _280
REMARK  107  A    between atoms: _280  and  _281
REMARK  108  A    between atoms: _280  and  _283
REMARK  109  A    between atoms: _283  and  _284
REMARK  110  A    between atoms: _287  and  _289
REMARK  111  A    between atoms: _289  and  _290
REMARK  112  A    between atoms: _293  and  _295
REMARK  113  A    between atoms: _295  and  _296
REMARK  114  A    between atoms: _295  and  _298
REMARK  115  A    between atoms: _298  and  _299
REMARK  116  A    between atoms: _302  and  _304
REMARK  117  A    between atoms: _304  and  _305
REMARK  118  A    between atoms: _304  and  _307
REMARK  119  A    between atoms: _307  and  _308
REMARK  120  A    between atoms: _308  and  _309
REMARK  121  A    between atoms: _312  and  _314
REMARK  122  A    between atoms: _314  and  _315
REMARK  123  A    between atoms: _314  and  _317
REMARK  124  A    between atoms: _317  and  _318
REMARK  125  A    between atoms: _323  and  _325
REMARK  126  A    between atoms: _325  and  _326
REMARK  127  A    between atoms: _328  and  _330
REMARK  128  A    between atoms: _330  and  _331
REMARK  129  A    between atoms: _330  and  _333
REMARK  130  A    between atoms: _336  and  _338
REMARK  131  A    between atoms: _338  and  _339
REMARK  132  A    between atoms: _342  and  _344
REMARK  133  A    between atoms: _344  and  _345
REMARK  134  A    between atoms: _344  and  _347
REMARK  135  A    between atoms: _347  and  _348
REMARK  136  A    between atoms: _353  and  _355
REMARK  137  A    between atoms: _355  and  _356
REMARK  138  A    between atoms: _355  and  _358
REMARK  139  A    between atoms: _358  and  _359
REMARK  140  A    between atoms: _359  and  _360
REMARK  141  A    between atoms: _360  and  _361
REMARK  142  A    between atoms: _361  and  _362
REMARK  143  A    between atoms: _366  and  _368
REMARK  144  A    between atoms: _368  and  _369
REMARK  145  A    between atoms: _368  and  _371
REMARK  146  A    between atoms: _371  and  _372
REMARK  147  A    between atoms: _377  and  _379
REMARK  148  A    between atoms: _379  and  _380
REMARK  149  A    between atoms: _382  and  _384
REMARK  150  A    between atoms: _384  and  _385
REMARK  151  A    between atoms: _384  and  _387
REMARK  152  A    between atoms: _387  and  _388
REMARK  153  A    between atoms: _391  and  _393
REMARK  154  A    between atoms: _393  and  _394
REMARK  155  A    between atoms: _393  and  _396
REMARK  156  A    between atoms: _396  and  _397
REMARK  157  A    between atoms: _397  and  _398
REMARK  158  A    between atoms: _398  and  _399
REMARK  159  A    between atoms: _399  and  _400
REMARK  160  A    between atoms: _404  and  _406
REMARK  161  A    between atoms: _406  and  _407
REMARK  162  A    between atoms: _406  and  _409
REMARK  163  A    between atoms: _409  and  _410
REMARK  164  A    between atoms: _410  and  _411
REMARK  165  A    between atoms: _411  and  _412
REMARK  166  A    between atoms: _421  and  _423
REMARK  167  A    between atoms: _423  and  _424
REMARK  168  A    between atoms: _423  and  _426
REMARK  169  A    between atoms: _426  and  _427
REMARK  170  A    between atoms: _432  and  _433
REMARK  171  A    between atoms: _435  and  _437
REMARK  172  A    between atoms: _437  and  _438
REMARK  173  A    between atoms: _437  and  _440
REMARK  174  A    between atoms: _440  and  _441
REMARK  175  A    between atoms: _441  and  _442
REMARK  176  A    between atoms: _442  and  _443
REMARK  177  A    between atoms: _443  and  _444
REMARK  178  A    between atoms: _448  and  _450
REMARK  179  A    between atoms: _450  and  _451
REMARK  180  A    between atoms: _450  and  _453
REMARK  181  A    between atoms: _453  and  _454
REMARK  182  A    between atoms: _456  and  _458
REMARK  183  A    between atoms: _458  and  _459
REMARK  184  A    between atoms: _458  and  _461
REMARK  185  A    between atoms: _461  and  _462
REMARK  186  A    between atoms: _465  and  _467
REMARK  187  A    between atoms: _467  and  _468
REMARK  188  A    between atoms: _467  and  _470
REMARK  189  A    between atoms: _470  and  _471
REMARK  190  A    between atoms: _471  and  _472
REMARK  191  A    between atoms: _475  and  _477
REMARK  192  A    between atoms: _477  and  _478
REMARK  193  A    between atoms: _481  and  _483
REMARK  194  A    between atoms: _483  and  _484
REMARK  195  A    between atoms: _483  and  _486
REMARK  196  A    between atoms: _486  and  _487
REMARK  197  A    between atoms: _489  and  _491
REMARK  198  A    between atoms: _491  and  _492
REMARK  199  A    between atoms: _494  and  _496
REMARK  200  A    between atoms: _496  and  _497
REMARK  201  A    between atoms: _496  and  _499
REMARK  202  A    between atoms: _499  and  _500
REMARK  203  A    between atoms: _503  and  _505
REMARK  204  A    between atoms: _505  and  _506
REMARK  205  A    between atoms: _508  and  _510
REMARK  206  A    between atoms: _510  and  _511
REMARK  207  A    between atoms: _510  and  _513
REMARK  208  A    between atoms: _513  and  _514
REMARK  209  A    between atoms: _519  and  _521
REMARK  210  A    between atoms: _521  and  _522
REMARK  211  A    between atoms: _521  and  _524
REMARK  212  A    between atoms: _524  and  _525
REMARK  213  A    between atoms: _525  and  _526
REMARK  214  A    between atoms: _533  and  _534
REMARK  215  A    between atoms: _534  and  _550
REMARK  216  A    between atoms: _535  and  _537
REMARK  217  A    between atoms: _537  and  _538
REMARK  218  A    between atoms: _538  and  _539
REMARK  219  A    between atoms: _543  and  _545
REMARK  220  A    between atoms: _545  and  _546
REMARK  221  A    between atoms: _545  and  _553
REMARK  222  A    between atoms: _546  and  _547
REMARK  223  A    between atoms: _547  and  _548
REMARK  224  A    between atoms: _548  and  _549
REMARK  225  A    between atoms: _549  and  _550
REMARK  226  A    between atoms: _555  and  _557
REMARK  227  A    between atoms: _557  and  _558
REMARK  228  A    between atoms: _557  and  _560
REMARK  229  A    between atoms: _560  and  _561
REMARK  230  A    between atoms: _564  and  _566
REMARK  231  A    between atoms: _566  and  _567
REMARK  232  A    between atoms: _569  and  _571
REMARK  233  A    between atoms: _571  and  _572
REMARK  234  A    between atoms: _575  and  _577
REMARK  235  A    between atoms: _577  and  _578
REMARK  236  A    between atoms: _577  and  _580
REMARK  237  A    between atoms: _580  and  _581
REMARK  238  A    between atoms: _586  and  _587
REMARK                            x       y       z     vdW  Elec       q    Type
REMARK                         _______ _______ _______ _____ _____    ______ ____
ROOT
ATOM      1  O   HOH     1      33.801  12.766  26.423  0.00  0.00    +0.000 OA
ENDROOT
TORSDOF 0
REMARK  Name = ../refined-set-2016/3l7b/3l7b_pocket.pdb
REMARK  238 active torsions:
REMARK  status: ('A' for Active; 'I' for Inactive)
REMARK    1  A    between atoms: _1  and  _3
REMARK    2  A    between atoms: _3  and  _4
REMARK    3  A    between atoms: _3  and  _6
REMARK    4  A    between atoms: _6  and  _7
REMARK    5  A    between atoms: _12  and  _13
REMARK    6  A    between atoms: _15  and  _17
REMARK    7  A    between atoms: _17  and  _18
REMARK    8  A    between atoms: _17  and  _20
REMARK    9  A    between atoms: _20  and  _21
REMARK   10  A    between atoms: _21  and  _22
REMARK   11  A    between atoms: _25  and  _27
REMARK   12  A    between atoms: _27  and  _28
REMARK   13  A    between atoms: _27  and  _30
REMARK   14  A    between atoms: _30  and  _31
REMARK   15  A    between atoms: _36  and  _37
REMARK   16  A    between atoms: _39  and  _41
REMARK   17  A    between atoms: _41  and  _42
REMARK   18  A    between atoms: _41  and  _44
REMARK   19  A    between atoms: _44  and  _45
REMARK   20  A    between atoms: _50  and  _52
REMARK   21  A    between atoms: _52  and  _53
REMARK   22  A    between atoms: _55  and  _57
REMARK   23  A    between atoms: _57  and  _58
REMARK   24  A    between atoms: _60  and  _62
REMARK   25  A    between atoms: _62  and  _63
REMARK   26  A    between atoms: _62  and  _65
REMARK   27  A    between atoms: _65  and  _66
REMARK   28  A    between atoms: _69  and  _71
REMARK   29  A    between atoms: _71  and  _72
REMARK   30  A    between atoms: _74  and  _76
REMARK   31  A    between atoms: _76  and  _77
REMARK   32  A    between atoms: _76  and  _79
REMARK   33  A    between atoms: _80  and  _81
REMARK   34  A    between atoms: _81  and  _82
REMARK   35  A    between atoms: _91  and  _93
REMARK   36  A    between atoms: _93  and  _94
REMARK   37  A    between atoms: _93  and  _96
REMARK   38  A    between atoms: _96  and  _97
REMARK   39  A    between atoms: _100  and  _102
REMARK   40  A    between atoms: _102  and  _103
REMARK   41  A    between atoms: _106  and  _108
REMARK   42  A    between atoms: _108  and  _109
REMARK   43  A    between atoms: _108  and  _111
REMARK   44  A    between atoms: _111  and  _112
REMARK   45  A    between atoms: _118  and  _120
REMARK   46  A    between atoms: _120  and  _121
REMARK   47  A    between atoms: _120  and  _123
REMARK   48  A    between atoms: _123  and  _124
REMARK   49  A    between atoms: _129  and  _131
REMARK   50  A    between atoms: _131  and  _132
REMARK   51  A    between atoms: _131  and  _134
REMARK   52  A    between atoms: _134  and  _135
REMARK   53  A    between atoms: _138  and  _140
REMARK   54  A    between atoms: _140  and  _141
REMARK   55  A    between atoms: _140  and  _143
REMARK   56  A    between atoms: _143  and  _144
REMARK   57  A    between atoms: _149  and  _151
REMARK   58  A    between atoms: _151  and  _152
REMARK   59  A    between atoms: _151  and  _154
REMARK   60  A    between atoms: _154  and  _155
REMARK   61  A    between atoms: _161  and  _163
REMARK   62  A    between atoms: _163  and  _164
REMARK   63  A    between atoms: _163  and  _166
REMARK   64  A    between atoms: _166  and  _167
REMARK   65  A    between atoms: _173  and  _175
REMARK   66  A    between atoms: _175  and  _176
REMARK   67  A    between atoms: _175  and  _178
REMARK   68  A    between atoms: _178  and  _179
REMARK   69  A    between atoms: _179  and  _180
REMARK   70  A    between atoms: _180  and  _181
REMARK   71  A    between atoms: _190  and  _192
REMARK   72  A    between atoms: _192  and  _193
REMARK   73  A    between atoms: _192  and  _195
REMARK   74  A    between atoms: _195  and  _196
REMARK   75  A    between atoms: _201  and  _203
REMARK   76  A    between atoms: _203  and  _204
REMARK   77  A    between atoms: _203  and  _206
REMARK   78  A    between atoms: _206  and  _207
REMARK   79  A    between atoms: _210  and  _212
REMARK   80  A    between atoms: _212  and  _213
REMARK   81  A    between atoms: _212  and  _215
REMARK   82  A    between atoms: _215  and  _216
REMARK   83  A    between atoms: _219  and  _221
REMARK   84  A    between atoms: _221  and  _222
REMARK   85  A    between atoms: _221  and  _224
REMARK   86  A    between atoms: _224  and  _225
REMARK   87  A    between atoms: _230  and  _232
REMARK   88  A    between atoms: _232  and  _233
REMARK   89  A    between atoms: _232  and  _235
REMARK   90  A    between atoms: _235  and  _236
REMARK   91  A    between atoms: _239  and  _241
REMARK   92  A    between atoms: _241  and  _242
REMARK   93  A    between atoms: _241  and  _244
REMARK   94  A    between atoms: _244  and  _245
REMARK   95  A    between atoms: _250  and  _252
REMARK   96  A    between atoms: _252  and  _253
REMARK   97  A    between atoms: _252  and  _255
REMARK   98  A    between atoms: _255  and  _256
REMARK   99  A    between atoms: _261  and  _263
REMARK  100  A    between atoms: _263  and  _264
REMARK  101  A    between atoms: _263  and  _266
REMARK  102  A    between atoms: _266  and  _267
REMARK  103  A    between atoms: _270  and  _272
REMARK  104  A    between atoms: _272  and  _273
REMARK  105  A    between atoms: _272  and  _275
REMARK  106  A    between atoms: _278  and  _280
REMARK  107  A    between atoms: _280  and  _281
REMARK  108  A    between atoms: _280  and  _283
REMARK  109  A    between atoms: _283  and  _284
REMARK  110  A    between atoms: _287  and  _289
REMARK  111  A    between atoms: _289  and  _290
REMARK  112  A    between atoms: _293  and  _295
REMARK  113  A    between atoms: _295  and  _296
REMARK  114  A    between atoms: _295  and  _298
REMARK  115  A    between atoms: _298  and  _299
REMARK  116  A    between atoms: _302  and  _304
REMARK  117  A    between atoms: _304  and  _305
REMARK  118  A    between atoms: _304  and  _307
REMARK  119  A    between atoms: _307  and  _308
REMARK  120  A    between atoms: _308  and  _309
REMARK  121  A    between atoms: _312  and  _314
REMARK  122  A    between atoms: _314  and  _315
REMARK  123  A    between atoms: _314  and  _317
REMARK  124  A    between atoms: _317  and  _318
REMARK  125  A    between atoms: _323  and  _325
REMARK  126  A    between atoms: _325  and  _326
REMARK  127  A    between atoms: _328  and  _330
REMARK  128  A    between atoms: _330  and  _331
REMARK  129  A    between atoms: _330  and  _333
REMARK  130  A    between atoms: _336  and  _338
REMARK  131  A    between atoms: _338  and  _339
REMARK  132  A    between atoms: _342  and  _344
REMARK  133  A    between atoms: _344  and  _345
REMARK  134  A    between atoms: _344  and  _347
REMARK  135  A    between atoms: _347  and  _348
REMARK  136  A    between atoms: _353  and  _355
REMARK  137  A    between atoms: _355  and  _356
REMARK  138  A    between atoms: _355  and  _358
REMARK  139  A    between atoms: _358  and  _359
REMARK  140  A    between atoms: _359  and  _360
REMARK  141  A    between atoms: _360  and  _361
REMARK  142  A    between atoms: _361  and  _362
REMARK  143  A    between atoms: _366  and  _368
REMARK  144  A    between atoms: _368  and  _369
REMARK  145  A    between atoms: _368  and  _371
REMARK  146  A    between atoms: _371  and  _372
REMARK  147  A    between atoms: _377  and  _379
REMARK  148  A    between atoms: _379  and  _380
REMARK  149  A    between atoms: _382  and  _384
REMARK  150  A    between atoms: _384  and  _385
REMARK  151  A    between atoms: _384  and  _387
REMARK  152  A    between atoms: _387  and  _388
REMARK  153  A    between atoms: _391  and  _393
REMARK  154  A    between atoms: _393  and  _394
REMARK  155  A    between atoms: _393  and  _396
REMARK  156  A    between atoms: _396  and  _397
REMARK  157  A    between atoms: _397  and  _398
REMARK  158  A    between atoms: _398  and  _399
REMARK  159  A    between atoms: _399  and  _400
REMARK  160  A    between atoms: _404  and  _406
REMARK  161  A    between atoms: _406  and  _407
REMARK  162  A    between atoms: _406  and  _409
REMARK  163  A    between atoms: _409  and  _410
REMARK  164  A    between atoms: _410  and  _411
REMARK  165  A    between atoms: _411  and  _412
REMARK  166  A    between atoms: _421  and  _423
REMARK  167  A    between atoms: _423  and  _424
REMARK  168  A    between atoms: _423  and  _426
REMARK  169  A    between atoms: _426  and  _427
REMARK  170  A    between atoms: _432  and  _433
REMARK  171  A    between atoms: _435  and  _437
REMARK  172  A    between atoms: _437  and  _438
REMARK  173  A    between atoms: _437  and  _440
REMARK  174  A    between atoms: _440  and  _441
REMARK  175  A    between atoms: _441  and  _442
REMARK  176  A    between atoms: _442  and  _443
REMARK  177  A    between atoms: _443  and  _444
REMARK  178  A    between atoms: _448  and  _450
REMARK  179  A    between atoms: _450  and  _451
REMARK  180  A    between atoms: _450  and  _453
REMARK  181  A    between atoms: _453  and  _454
REMARK  182  A    between atoms: _456  and  _458
REMARK  183  A    between atoms: _458  and  _459
REMARK  184  A    between atoms: _458  and  _461
REMARK  185  A    between atoms: _461  and  _462
REMARK  186  A    between atoms: _465  and  _467
REMARK  187  A    between atoms: _467  and  _468
REMARK  188  A    between atoms: _467  and  _470
REMARK  189  A    between atoms: _470  and  _471
REMARK  190  A    between atoms: _471  and  _472
REMARK  191  A    between atoms: _475  and  _477
REMARK  192  A    between atoms: _477  and  _478
REMARK  193  A    between atoms: _481  and  _483
REMARK  194  A    between atoms: _483  and  _484
REMARK  195  A    between atoms: _483  and  _486
REMARK  196  A    between atoms: _486  and  _487
REMARK  197  A    between atoms: _489  and  _491
REMARK  198  A    between atoms: _491  and  _492
REMARK  199  A    between atoms: _494  and  _496
REMARK  200  A    between atoms: _496  and  _497
REMARK  201  A    between atoms: _496  and  _499
REMARK  202  A    between atoms: _499  and  _500
REMARK  203  A    between atoms: _503  and  _505
REMARK  204  A    between atoms: _505  and  _506
REMARK  205  A    between atoms: _508  and  _510
REMARK  206  A    between atoms: _510  and  _511
REMARK  207  A    between atoms: _510  and  _513
REMARK  208  A    between atoms: _513  and  _514
REMARK  209  A    between atoms: _519  and  _521
REMARK  210  A    between atoms: _521  and  _522
REMARK  211  A    between atoms: _521  and  _524
REMARK  212  A    between atoms: _524  and  _525
REMARK  213  A    between atoms: _525  and  _526
REMARK  214  A    between atoms: _533  and  _534
REMARK  215  A    between atoms: _534  and  _550
REMARK  216  A    between atoms: _535  and  _537
REMARK  217  A    between atoms: _537  and  _538
REMARK  218  A    between atoms: _538  and  _539
REMARK  219  A    between atoms: _543  and  _545
REMARK  220  A    between atoms: _545  and  _546
REMARK  221  A    between atoms: _545  and  _553
REMARK  222  A    between atoms: _546  and  _547
REMARK  223  A    between atoms: _547  and  _548
REMARK  224  A    between atoms: _548  and  _549
REMARK  225  A    between atoms: _549  and  _550
REMARK  226  A    between atoms: _555  and  _557
REMARK  227  A    between atoms: _557  and  _558
REMARK  228  A    between atoms: _557  and  _560
REMARK  229  A    between atoms: _560  and  _561
REMARK  230  A    between atoms: _564  and  _566
REMARK  231  A    between atoms: _566  and  _567
REMARK  232  A    between atoms: _569  and  _571
REMARK  233  A    between atoms: _571  and  _572
REMARK  234  A    between atoms: _575  and  _577
REMARK  235  A    between atoms: _577  and  _578
REMARK  236  A    between atoms: _577  and  _580
REMARK  237  A    between atoms: _580  and  _581
REMARK  238  A    between atoms: _586  and  _587
REMARK                            x       y       z     vdW  Elec       q    Type
REMARK                         _______ _______ _______ _____ _____    ______ ____
ROOT
ATOM      1  O   HOH     1      29.418  27.613  20.868  0.00  0.00    +0.000 OA
ENDROOT
TORSDOF 0
REMARK  Name = ../refined-set-2016/3l7b/3l7b_pocket.pdb
REMARK  238 active torsions:
REMARK  status: ('A' for Active; 'I' for Inactive)
REMARK    1  A    between atoms: _1  and  _3
REMARK    2  A    between atoms: _3  and  _4
REMARK    3  A    between atoms: _3  and  _6
REMARK    4  A    between atoms: _6  and  _7
REMARK    5  A    between atoms: _12  and  _13
REMARK    6  A    between atoms: _15  and  _17
REMARK    7  A    between atoms: _17  and  _18
REMARK    8  A    between atoms: _17  and  _20
REMARK    9  A    between atoms: _20  and  _21
REMARK   10  A    between atoms: _21  and  _22
REMARK   11  A    between atoms: _25  and  _27
REMARK   12  A    between atoms: _27  and  _28
REMARK   13  A    between atoms: _27  and  _30
REMARK   14  A    between atoms: _30  and  _31
REMARK   15  A    between atoms: _36  and  _37
REMARK   16  A    between atoms: _39  and  _41
REMARK   17  A    between atoms: _41  and  _42
REMARK   18  A    between atoms: _41  and  _44
REMARK   19  A    between atoms: _44  and  _45
REMARK   20  A    between atoms: _50  and  _52
REMARK   21  A    between atoms: _52  and  _53
REMARK   22  A    between atoms: _55  and  _57
REMARK   23  A    between atoms: _57  and  _58
REMARK   24  A    between atoms: _60  and  _62
REMARK   25  A    between atoms: _62  and  _63
REMARK   26  A    between atoms: _62  and  _65
REMARK   27  A    between atoms: _65  and  _66
REMARK   28  A    between atoms: _69  and  _71
REMARK   29  A    between atoms: _71  and  _72
REMARK   30  A    between atoms: _74  and  _76
REMARK   31  A    between atoms: _76  and  _77
REMARK   32  A    between atoms: _76  and  _79
REMARK   33  A    between atoms: _80  and  _81
REMARK   34  A    between atoms: _81  and  _82
REMARK   35  A    between atoms: _91  and  _93
REMARK   36  A    between atoms: _93  and  _94
REMARK   37  A    between atoms: _93  and  _96
REMARK   38  A    between atoms: _96  and  _97
REMARK   39  A    between atoms: _100  and  _102
REMARK   40  A    between atoms: _102  and  _103
REMARK   41  A    between atoms: _106  and  _108
REMARK   42  A    between atoms: _108  and  _109
REMARK   43  A    between atoms: _108  and  _111
REMARK   44  A    between atoms: _111  and  _112
REMARK   45  A    between atoms: _118  and  _120
REMARK   46  A    between atoms: _120  and  _121
REMARK   47  A    between atoms: _120  and  _123
REMARK   48  A    between atoms: _123  and  _124
REMARK   49  A    between atoms: _129  and  _131
REMARK   50  A    between atoms: _131  and  _132
REMARK   51  A    between atoms: _131  and  _134
REMARK   52  A    between atoms: _134  and  _135
REMARK   53  A    between atoms: _138  and  _140
REMARK   54  A    between atoms: _140  and  _141
REMARK   55  A    between atoms: _140  and  _143
REMARK   56  A    between atoms: _143  and  _144
REMARK   57  A    between atoms: _149  and  _151
REMARK   58  A    between atoms: _151  and  _152
REMARK   59  A    between atoms: _151  and  _154
REMARK   60  A    between atoms: _154  and  _155
REMARK   61  A    between atoms: _161  and  _163
REMARK   62  A    between atoms: _163  and  _164
REMARK   63  A    between atoms: _163  and  _166
REMARK   64  A    between atoms: _166  and  _167
REMARK   65  A    between atoms: _173  and  _175
REMARK   66  A    between atoms: _175  and  _176
REMARK   67  A    between atoms: _175  and  _178
REMARK   68  A    between atoms: _178  and  _179
REMARK   69  A    between atoms: _179  and  _180
REMARK   70  A    between atoms: _180  and  _181
REMARK   71  A    between atoms: _190  and  _192
REMARK   72  A    between atoms: _192  and  _193
REMARK   73  A    between atoms: _192  and  _195
REMARK   74  A    between atoms: _195  and  _196
REMARK   75  A    between atoms: _201  and  _203
REMARK   76  A    between atoms: _203  and  _204
REMARK   77  A    between atoms: _203  and  _206
REMARK   78  A    between atoms: _206  and  _207
REMARK   79  A    between atoms: _210  and  _212
REMARK   80  A    between atoms: _212  and  _213
REMARK   81  A    between atoms: _212  and  _215
REMARK   82  A    between atoms: _215  and  _216
REMARK   83  A    between atoms: _219  and  _221
REMARK   84  A    between atoms: _221  and  _222
REMARK   85  A    between atoms: _221  and  _224
REMARK   86  A    between atoms: _224  and  _225
REMARK   87  A    between atoms: _230  and  _232
REMARK   88  A    between atoms: _232  and  _233
REMARK   89  A    between atoms: _232  and  _235
REMARK   90  A    between atoms: _235  and  _236
REMARK   91  A    between atoms: _239  and  _241
REMARK   92  A    between atoms: _241  and  _242
REMARK   93  A    between atoms: _241  and  _244
REMARK   94  A    between atoms: _244  and  _245
REMARK   95  A    between atoms: _250  and  _252
REMARK   96  A    between atoms: _252  and  _253
REMARK   97  A    between atoms: _252  and  _255
REMARK   98  A    between atoms: _255  and  _256
REMARK   99  A    between atoms: _261  and  _263
REMARK  100  A    between atoms: _263  and  _264
REMARK  101  A    between atoms: _263  and  _266
REMARK  102  A    between atoms: _266  and  _267
REMARK  103  A    between atoms: _270  and  _272
REMARK  104  A    between atoms: _272  and  _273
REMARK  105  A    between atoms: _272  and  _275
REMARK  106  A    between atoms: _278  and  _280
REMARK  107  A    between atoms: _280  and  _281
REMARK  108  A    between atoms: _280  and  _283
REMARK  109  A    between atoms: _283  and  _284
REMARK  110  A    between atoms: _287  and  _289
REMARK  111  A    between atoms: _289  and  _290
REMARK  112  A    between atoms: _293  and  _295
REMARK  113  A    between atoms: _295  and  _296
REMARK  114  A    between atoms: _295  and  _298
REMARK  115  A    between atoms: _298  and  _299
REMARK  116  A    between atoms: _302  and  _304
REMARK  117  A    between atoms: _304  and  _305
REMARK  118  A    between atoms: _304  and  _307
REMARK  119  A    between atoms: _307  and  _308
REMARK  120  A    between atoms: _308  and  _309
REMARK  121  A    between atoms: _312  and  _314
REMARK  122  A    between atoms: _314  and  _315
REMARK  123  A    between atoms: _314  and  _317
REMARK  124  A    between atoms: _317  and  _318
REMARK  125  A    between atoms: _323  and  _325
REMARK  126  A    between atoms: _325  and  _326
REMARK  127  A    between atoms: _328  and  _330
REMARK  128  A    between atoms: _330  and  _331
REMARK  129  A    between atoms: _330  and  _333
REMARK  130  A    between atoms: _336  and  _338
REMARK  131  A    between atoms: _338  and  _339
REMARK  132  A    between atoms: _342  and  _344
REMARK  133  A    between atoms: _344  and  _345
REMARK  134  A    between atoms: _344  and  _347
REMARK  135  A    between atoms: _347  and  _348
REMARK  136  A    between atoms: _353  and  _355
REMARK  137  A    between atoms: _355  and  _356
REMARK  138  A    between atoms: _355  and  _358
REMARK  139  A    between atoms: _358  and  _359
REMARK  140  A    between atoms: _359  and  _360
REMARK  141  A    between atoms: _360  and  _361
REMARK  142  A    between atoms: _361  and  _362
REMARK  143  A    between atoms: _366  and  _368
REMARK  144  A    between atoms: _368  and  _369
REMARK  145  A    between atoms: _368  and  _371
REMARK  146  A    between atoms: _371  and  _372
REMARK  147  A    between atoms: _377  and  _379
REMARK  148  A    between atoms: _379  and  _380
REMARK  149  A    between atoms: _382  and  _384
REMARK  150  A    between atoms: _384  and  _385
REMARK  151  A    between atoms: _384  and  _387
REMARK  152  A    between atoms: _387  and  _388
REMARK  153  A    between atoms: _391  and  _393
REMARK  154  A    between atoms: _393  and  _394
REMARK  155  A    between atoms: _393  and  _396
REMARK  156  A    between atoms: _396  and  _397
REMARK  157  A    between atoms: _397  and  _398
REMARK  158  A    between atoms: _398  and  _399
REMARK  159  A    between atoms: _399  and  _400
REMARK  160  A    between atoms: _404  and  _406
REMARK  161  A    between atoms: _406  and  _407
REMARK  162  A    between atoms: _406  and  _409
REMARK  163  A    between atoms: _409  and  _410
REMARK  164  A    between atoms: _410  and  _411
REMARK  165  A    between atoms: _411  and  _412
REMARK  166  A    between atoms: _421  and  _423
REMARK  167  A    between atoms: _423  and  _424
REMARK  168  A    between atoms: _423  and  _426
REMARK  169  A    between atoms: _426  and  _427
REMARK  170  A    between atoms: _432  and  _433
REMARK  171  A    between atoms: _435  and  _437
REMARK  172  A    between atoms: _437  and  _438
REMARK  173  A    between atoms: _437  and  _440
REMARK  174  A    between atoms: _440  and  _441
REMARK  175  A    between atoms: _441  and  _442
REMARK  176  A    between atoms: _442  and  _443
REMARK  177  A    between atoms: _443  and  _444
REMARK  178  A    between atoms: _448  and  _450
REMARK  179  A    between atoms: _450  and  _451
REMARK  180  A    between atoms: _450  and  _453
REMARK  181  A    between atoms: _453  and  _454
REMARK  182  A    between atoms: _456  and  _458
REMARK  183  A    between atoms: _458  and  _459
REMARK  184  A    between atoms: _458  and  _461
REMARK  185  A    between atoms: _461  and  _462
REMARK  186  A    between atoms: _465  and  _467
REMARK  187  A    between atoms: _467  and  _468
REMARK  188  A    between atoms: _467  and  _470
REMARK  189  A    between atoms: _470  and  _471
REMARK  190  A    between atoms: _471  and  _472
REMARK  191  A    between atoms: _475  and  _477
REMARK  192  A    between atoms: _477  and  _478
REMARK  193  A    between atoms: _481  and  _483
REMARK  194  A    between atoms: _483  and  _484
REMARK  195  A    between atoms: _483  and  _486
REMARK  196  A    between atoms: _486  and  _487
REMARK  197  A    between atoms: _489  and  _491
REMARK  198  A    between atoms: _491  and  _492
REMARK  199  A    between atoms: _494  and  _496
REMARK  200  A    between atoms: _496  and  _497
REMARK  201  A    between atoms: _496  and  _499
REMARK  202  A    between atoms: _499  and  _500
REMARK  203  A    between atoms: _503  and  _505
REMARK  204  A    between atoms: _505  and  _506
REMARK  205  A    between atoms: _508  and  _510
REMARK  206  A    between atoms: _510  and  _511
REMARK  207  A    between atoms: _510  and  _513
REMARK  208  A    between atoms: _513  and  _514
REMARK  209  A    between atoms: _519  and  _521
REMARK  210  A    between atoms: _521  and  _522
REMARK  211  A    between atoms: _521  and  _524
REMARK  212  A    between atoms: _524  and  _525
REMARK  213  A    between atoms: _525  and  _526
REMARK  214  A    between atoms: _533  and  _534
REMARK  215  A    between atoms: _534  and  _550
REMARK  216  A    between atoms: _535  and  _537
REMARK  217  A    between atoms: _537  and  _538
REMARK  218  A    between atoms: _538  and  _539
REMARK  219  A    between atoms: _543  and  _545
REMARK  220  A    between atoms: _545  and  _546
REMARK  221  A    between atoms: _545  and  _553
REMARK  222  A    between atoms: _546  and  _547
REMARK  223  A    between atoms: _547  and  _548
REMARK  224  A    between atoms: _548  and  _549
REMARK  225  A    between atoms: _549  and  _550
REMARK  226  A    between atoms: _555  and  _557
REMARK  227  A    between atoms: _557  and  _558
REMARK  228  A    between atoms: _557  and  _560
REMARK  229  A    between atoms: _560  and  _561
REMARK  230  A    between atoms: _564  and  _566
REMARK  231  A    between atoms: _566  and  _567
REMARK  232  A    between atoms: _569  and  _571
REMARK  233  A    between atoms: _571  and  _572
REMARK  234  A    between atoms: _575  and  _577
REMARK  235  A    between atoms: _577  and  _578
REMARK  236  A    between atoms: _577  and  _580
REMARK  237  A    between atoms: _580  and  _581
REMARK  238  A    between atoms: _586  and  _587
REMARK                            x       y       z     vdW  Elec       q    Type
REMARK                         _______ _______ _______ _____ _____    ______ ____
ROOT
ATOM      1  O   HOH     1      26.303  16.723  28.884  0.00  0.00    +0.000 OA
ENDROOT
TORSDOF 0
REMARK  Name = ../refined-set-2016/3l7b/3l7b_pocket.pdb
REMARK  238 active torsions:
REMARK  status: ('A' for Active; 'I' for Inactive)
REMARK    1  A    between atoms: _1  and  _3
REMARK    2  A    between atoms: _3  and  _4
REMARK    3  A    between atoms: _3  and  _6
REMARK    4  A    between atoms: _6  and  _7
REMARK    5  A    between atoms: _12  and  _13
REMARK    6  A    between atoms: _15  and  _17
REMARK    7  A    between atoms: _17  and  _18
REMARK    8  A    between atoms: _17  and  _20
REMARK    9  A    between atoms: _20  and  _21
REMARK   10  A    between atoms: _21  and  _22
REMARK   11  A    between atoms: _25  and  _27
REMARK   12  A    between atoms: _27  and  _28
REMARK   13  A    between atoms: _27  and  _30
REMARK   14  A    between atoms: _30  and  _31
REMARK   15  A    between atoms: _36  and  _37
REMARK   16  A    between atoms: _39  and  _41
REMARK   17  A    between atoms: _41  and  _42
REMARK   18  A    between atoms: _41  and  _44
REMARK   19  A    between atoms: _44  and  _45
REMARK   20  A    between atoms: _50  and  _52
REMARK   21  A    between atoms: _52  and  _53
REMARK   22  A    between atoms: _55  and  _57
REMARK   23  A    between atoms: _57  and  _58
REMARK   24  A    between atoms: _60  and  _62
REMARK   25  A    between atoms: _62  and  _63
REMARK   26  A    between atoms: _62  and  _65
REMARK   27  A    between atoms: _65  and  _66
REMARK   28  A    between atoms: _69  and  _71
REMARK   29  A    between atoms: _71  and  _72
REMARK   30  A    between atoms: _74  and  _76
REMARK   31  A    between atoms: _76  and  _77
REMARK   32  A    between atoms: _76  and  _79
REMARK   33  A    between atoms: _80  and  _81
REMARK   34  A    between atoms: _81  and  _82
REMARK   35  A    between atoms: _91  and  _93
REMARK   36  A    between atoms: _93  and  _94
REMARK   37  A    between atoms: _93  and  _96
REMARK   38  A    between atoms: _96  and  _97
REMARK   39  A    between atoms: _100  and  _102
REMARK   40  A    between atoms: _102  and  _103
REMARK   41  A    between atoms: _106  and  _108
REMARK   42  A    between atoms: _108  and  _109
REMARK   43  A    between atoms: _108  and  _111
REMARK   44  A    between atoms: _111  and  _112
REMARK   45  A    between atoms: _118  and  _120
REMARK   46  A    between atoms: _120  and  _121
REMARK   47  A    between atoms: _120  and  _123
REMARK   48  A    between atoms: _123  and  _124
REMARK   49  A    between atoms: _129  and  _131
REMARK   50  A    between atoms: _131  and  _132
REMARK   51  A    between atoms: _131  and  _134
REMARK   52  A    between atoms: _134  and  _135
REMARK   53  A    between atoms: _138  and  _140
REMARK   54  A    between atoms: _140  and  _141
REMARK   55  A    between atoms: _140  and  _143
REMARK   56  A    between atoms: _143  and  _144
REMARK   57  A    between atoms: _149  and  _151
REMARK   58  A    between atoms: _151  and  _152
REMARK   59  A    between atoms: _151  and  _154
REMARK   60  A    between atoms: _154  and  _155
REMARK   61  A    between atoms: _161  and  _163
REMARK   62  A    between atoms: _163  and  _164
REMARK   63  A    between atoms: _163  and  _166
REMARK   64  A    between atoms: _166  and  _167
REMARK   65  A    between atoms: _173  and  _175
REMARK   66  A    between atoms: _175  and  _176
REMARK   67  A    between atoms: _175  and  _178
REMARK   68  A    between atoms: _178  and  _179
REMARK   69  A    between atoms: _179  and  _180
REMARK   70  A    between atoms: _180  and  _181
REMARK   71  A    between atoms: _190  and  _192
REMARK   72  A    between atoms: _192  and  _193
REMARK   73  A    between atoms: _192  and  _195
REMARK   74  A    between atoms: _195  and  _196
REMARK   75  A    between atoms: _201  and  _203
REMARK   76  A    between atoms: _203  and  _204
REMARK   77  A    between atoms: _203  and  _206
REMARK   78  A    between atoms: _206  and  _207
REMARK   79  A    between atoms: _210  and  _212
REMARK   80  A    between atoms: _212  and  _213
REMARK   81  A    between atoms: _212  and  _215
REMARK   82  A    between atoms: _215  and  _216
REMARK   83  A    between atoms: _219  and  _221
REMARK   84  A    between atoms: _221  and  _222
REMARK   85  A    between atoms: _221  and  _224
REMARK   86  A    between atoms: _224  and  _225
REMARK   87  A    between atoms: _230  and  _232
REMARK   88  A    between atoms: _232  and  _233
REMARK   89  A    between atoms: _232  and  _235
REMARK   90  A    between atoms: _235  and  _236
REMARK   91  A    between atoms: _239  and  _241
REMARK   92  A    between atoms: _241  and  _242
REMARK   93  A    between atoms: _241  and  _244
REMARK   94  A    between atoms: _244  and  _245
REMARK   95  A    between atoms: _250  and  _252
REMARK   96  A    between atoms: _252  and  _253
REMARK   97  A    between atoms: _252  and  _255
REMARK   98  A    between atoms: _255  and  _256
REMARK   99  A    between atoms: _261  and  _263
REMARK  100  A    between atoms: _263  and  _264
REMARK  101  A    between atoms: _263  and  _266
REMARK  102  A    between atoms: _266  and  _267
REMARK  103  A    between atoms: _270  and  _272
REMARK  104  A    between atoms: _272  and  _273
REMARK  105  A    between atoms: _272  and  _275
REMARK  106  A    between atoms: _278  and  _280
REMARK  107  A    between atoms: _280  and  _281
REMARK  108  A    between atoms: _280  and  _283
REMARK  109  A    between atoms: _283  and  _284
REMARK  110  A    between atoms: _287  and  _289
REMARK  111  A    between atoms: _289  and  _290
REMARK  112  A    between atoms: _293  and  _295
REMARK  113  A    between atoms: _295  and  _296
REMARK  114  A    between atoms: _295  and  _298
REMARK  115  A    between atoms: _298  and  _299
REMARK  116  A    between atoms: _302  and  _304
REMARK  117  A    between atoms: _304  and  _305
REMARK  118  A    between atoms: _304  and  _307
REMARK  119  A    between atoms: _307  and  _308
REMARK  120  A    between atoms: _308  and  _309
REMARK  121  A    between atoms: _312  and  _314
REMARK  122  A    between atoms: _314  and  _315
REMARK  123  A    between atoms: _314  and  _317
REMARK  124  A    between atoms: _317  and  _318
REMARK  125  A    between atoms: _323  and  _325
REMARK  126  A    between atoms: _325  and  _326
REMARK  127  A    between atoms: _328  and  _330
REMARK  128  A    between atoms: _330  and  _331
REMARK  129  A    between atoms: _330  and  _333
REMARK  130  A    between atoms: _336  and  _338
REMARK  131  A    between atoms: _338  and  _339
REMARK  132  A    between atoms: _342  and  _344
REMARK  133  A    between atoms: _344  and  _345
REMARK  134  A    between atoms: _344  and  _347
REMARK  135  A    between atoms: _347  and  _348
REMARK  136  A    between atoms: _353  and  _355
REMARK  137  A    between atoms: _355  and  _356
REMARK  138  A    between atoms: _355  and  _358
REMARK  139  A    between atoms: _358  and  _359
REMARK  140  A    between atoms: _359  and  _360
REMARK  141  A    between atoms: _360  and  _361
REMARK  142  A    between atoms: _361  and  _362
REMARK  143  A    between atoms: _366  and  _368
REMARK  144  A    between atoms: _368  and  _369
REMARK  145  A    between atoms: _368  and  _371
REMARK  146  A    between atoms: _371  and  _372
REMARK  147  A    between atoms: _377  and  _379
REMARK  148  A    between atoms: _379  and  _380
REMARK  149  A    between atoms: _382  and  _384
REMARK  150  A    between atoms: _384  and  _385
REMARK  151  A    between atoms: _384  and  _387
REMARK  152  A    between atoms: _387  and  _388
REMARK  153  A    between atoms: _391  and  _393
REMARK  154  A    between atoms: _393  and  _394
REMARK  155  A    between atoms: _393  and  _396
REMARK  156  A    between atoms: _396  and  _397
REMARK  157  A    between atoms: _397  and  _398
REMARK  158  A    between atoms: _398  and  _399
REMARK  159  A    between atoms: _399  and  _400
REMARK  160  A    between atoms: _404  and  _406
REMARK  161  A    between atoms: _406  and  _407
REMARK  162  A    between atoms: _406  and  _409
REMARK  163  A    between atoms: _409  and  _410
REMARK  164  A    between atoms: _410  and  _411
REMARK  165  A    between atoms: _411  and  _412
REMARK  166  A    between atoms: _421  and  _423
REMARK  167  A    between atoms: _423  and  _424
REMARK  168  A    between atoms: _423  and  _426
REMARK  169  A    between atoms: _426  and  _427
REMARK  170  A    between atoms: _432  and  _433
REMARK  171  A    between atoms: _435  and  _437
REMARK  172  A    between atoms: _437  and  _438
REMARK  173  A    between atoms: _437  and  _440
REMARK  174  A    between atoms: _440  and  _441
REMARK  175  A    between atoms: _441  and  _442
REMARK  176  A    between atoms: _442  and  _443
REMARK  177  A    between atoms: _443  and  _444
REMARK  178  A    between atoms: _448  and  _450
REMARK  179  A    between atoms: _450  and  _451
REMARK  180  A    between atoms: _450  and  _453
REMARK  181  A    between atoms: _453  and  _454
REMARK  182  A    between atoms: _456  and  _458
REMARK  183  A    between atoms: _458  and  _459
REMARK  184  A    between atoms: _458  and  _461
REMARK  185  A    between atoms: _461  and  _462
REMARK  186  A    between atoms: _465  and  _467
REMARK  187  A    between atoms: _467  and  _468
REMARK  188  A    between atoms: _467  and  _470
REMARK  189  A    between atoms: _470  and  _471
REMARK  190  A    between atoms: _471  and  _472
REMARK  191  A    between atoms: _475  and  _477
REMARK  192  A    between atoms: _477  and  _478
REMARK  193  A    between atoms: _481  and  _483
REMARK  194  A    between atoms: _483  and  _484
REMARK  195  A    between atoms: _483  and  _486
REMARK  196  A    between atoms: _486  and  _487
REMARK  197  A    between atoms: _489  and  _491
REMARK  198  A    between atoms: _491  and  _492
REMARK  199  A    between atoms: _494  and  _496
REMARK  200  A    between atoms: _496  and  _497
REMARK  201  A    between atoms: _496  and  _499
REMARK  202  A    between atoms: _499  and  _500
REMARK  203  A    between atoms: _503  and  _505
REMARK  204  A    between atoms: _505  and  _506
REMARK  205  A    between atoms: _508  and  _510
REMARK  206  A    between atoms: _510  and  _511
REMARK  207  A    between atoms: _510  and  _513
REMARK  208  A    between atoms: _513  and  _514
REMARK  209  A    between atoms: _519  and  _521
REMARK  210  A    between atoms: _521  and  _522
REMARK  211  A    between atoms: _521  and  _524
REMARK  212  A    between atoms: _524  and  _525
REMARK  213  A    between atoms: _525  and  _526
REMARK  214  A    between atoms: _533  and  _534
REMARK  215  A    between atoms: _534  and  _550
REMARK  216  A    between atoms: _535  and  _537
REMARK  217  A    between atoms: _537  and  _538
REMARK  218  A    between atoms: _538  and  _539
REMARK  219  A    between atoms: _543  and  _545
REMARK  220  A    between atoms: _545  and  _546
REMARK  221  A    between atoms: _545  and  _553
REMARK  222  A    between atoms: _546  and  _547
REMARK  223  A    between atoms: _547  and  _548
REMARK  224  A    between atoms: _548  and  _549
REMARK  225  A    between atoms: _549  and  _550
REMARK  226  A    between atoms: _555  and  _557
REMARK  227  A    between atoms: _557  and  _558
REMARK  228  A    between atoms: _557  and  _560
REMARK  229  A    between atoms: _560  and  _561
REMARK  230  A    between atoms: _564  and  _566
REMARK  231  A    between atoms: _566  and  _567
REMARK  232  A    between atoms: _569  and  _571
REMARK  233  A    between atoms: _571  and  _572
REMARK  234  A    between atoms: _575  and  _577
REMARK  235  A    between atoms: _577  and  _578
REMARK  236  A    between atoms: _577  and  _580
REMARK  237  A    between atoms: _580  and  _581
REMARK  238  A    between atoms: _586  and  _587
REMARK                            x       y       z     vdW  Elec       q    Type
REMARK                         _______ _______ _______ _____ _____    ______ ____
ROOT
ATOM      1  O   HOH     1      30.359  26.145  29.276  0.00  0.00    +0.000 OA
ENDROOT
TORSDOF 0
REMARK  Name = ../refined-set-2016/3l7b/3l7b_pocket.pdb
REMARK  238 active torsions:
REMARK  status: ('A' for Active; 'I' for Inactive)
REMARK    1  A    between atoms: _1  and  _3
REMARK    2  A    between atoms: _3  and  _4
REMARK    3  A    between atoms: _3  and  _6
REMARK    4  A    between atoms: _6  and  _7
REMARK    5  A    between atoms: _12  and  _13
REMARK    6  A    between atoms: _15  and  _17
REMARK    7  A    between atoms: _17  and  _18
REMARK    8  A    between atoms: _17  and  _20
REMARK    9  A    between atoms: _20  and  _21
REMARK   10  A    between atoms: _21  and  _22
REMARK   11  A    between atoms: _25  and  _27
REMARK   12  A    between atoms: _27  and  _28
REMARK   13  A    between atoms: _27  and  _30
REMARK   14  A    between atoms: _30  and  _31
REMARK   15  A    between atoms: _36  and  _37
REMARK   16  A    between atoms: _39  and  _41
REMARK   17  A    between atoms: _41  and  _42
REMARK   18  A    between atoms: _41  and  _44
REMARK   19  A    between atoms: _44  and  _45
REMARK   20  A    between atoms: _50  and  _52
REMARK   21  A    between atoms: _52  and  _53
REMARK   22  A    between atoms: _55  and  _57
REMARK   23  A    between atoms: _57  and  _58
REMARK   24  A    between atoms: _60  and  _62
REMARK   25  A    between atoms: _62  and  _63
REMARK   26  A    between atoms: _62  and  _65
REMARK   27  A    between atoms: _65  and  _66
REMARK   28  A    between atoms: _69  and  _71
REMARK   29  A    between atoms: _71  and  _72
REMARK   30  A    between atoms: _74  and  _76
REMARK   31  A    between atoms: _76  and  _77
REMARK   32  A    between atoms: _76  and  _79
REMARK   33  A    between atoms: _80  and  _81
REMARK   34  A    between atoms: _81  and  _82
REMARK   35  A    between atoms: _91  and  _93
REMARK   36  A    between atoms: _93  and  _94
REMARK   37  A    between atoms: _93  and  _96
REMARK   38  A    between atoms: _96  and  _97
REMARK   39  A    between atoms: _100  and  _102
REMARK   40  A    between atoms: _102  and  _103
REMARK   41  A    between atoms: _106  and  _108
REMARK   42  A    between atoms: _108  and  _109
REMARK   43  A    between atoms: _108  and  _111
REMARK   44  A    between atoms: _111  and  _112
REMARK   45  A    between atoms: _118  and  _120
REMARK   46  A    between atoms: _120  and  _121
REMARK   47  A    between atoms: _120  and  _123
REMARK   48  A    between atoms: _123  and  _124
REMARK   49  A    between atoms: _129  and  _131
REMARK   50  A    between atoms: _131  and  _132
REMARK   51  A    between atoms: _131  and  _134
REMARK   52  A    between atoms: _134  and  _135
REMARK   53  A    between atoms: _138  and  _140
REMARK   54  A    between atoms: _140  and  _141
REMARK   55  A    between atoms: _140  and  _143
REMARK   56  A    between atoms: _143  and  _144
REMARK   57  A    between atoms: _149  and  _151
REMARK   58  A    between atoms: _151  and  _152
REMARK   59  A    between atoms: _151  and  _154
REMARK   60  A    between atoms: _154  and  _155
REMARK   61  A    between atoms: _161  and  _163
REMARK   62  A    between atoms: _163  and  _164
REMARK   63  A    between atoms: _163  and  _166
REMARK   64  A    between atoms: _166  and  _167
REMARK   65  A    between atoms: _173  and  _175
REMARK   66  A    between atoms: _175  and  _176
REMARK   67  A    between atoms: _175  and  _178
REMARK   68  A    between atoms: _178  and  _179
REMARK   69  A    between atoms: _179  and  _180
REMARK   70  A    between atoms: _180  and  _181
REMARK   71  A    between atoms: _190  and  _192
REMARK   72  A    between atoms: _192  and  _193
REMARK   73  A    between atoms: _192  and  _195
REMARK   74  A    between atoms: _195  and  _196
REMARK   75  A    between atoms: _201  and  _203
REMARK   76  A    between atoms: _203  and  _204
REMARK   77  A    between atoms: _203  and  _206
REMARK   78  A    between atoms: _206  and  _207
REMARK   79  A    between atoms: _210  and  _212
REMARK   80  A    between atoms: _212  and  _213
REMARK   81  A    between atoms: _212  and  _215
REMARK   82  A    between atoms: _215  and  _216
REMARK   83  A    between atoms: _219  and  _221
REMARK   84  A    between atoms: _221  and  _222
REMARK   85  A    between atoms: _221  and  _224
REMARK   86  A    between atoms: _224  and  _225
REMARK   87  A    between atoms: _230  and  _232
REMARK   88  A    between atoms: _232  and  _233
REMARK   89  A    between atoms: _232  and  _235
REMARK   90  A    between atoms: _235  and  _236
REMARK   91  A    between atoms: _239  and  _241
REMARK   92  A    between atoms: _241  and  _242
REMARK   93  A    between atoms: _241  and  _244
REMARK   94  A    between atoms: _244  and  _245
REMARK   95  A    between atoms: _250  and  _252
REMARK   96  A    between atoms: _252  and  _253
REMARK   97  A    between atoms: _252  and  _255
REMARK   98  A    between atoms: _255  and  _256
REMARK   99  A    between atoms: _261  and  _263
REMARK  100  A    between atoms: _263  and  _264
REMARK  101  A    between atoms: _263  and  _266
REMARK  102  A    between atoms: _266  and  _267
REMARK  103  A    between atoms: _270  and  _272
REMARK  104  A    between atoms: _272  and  _273
REMARK  105  A    between atoms: _272  and  _275
REMARK  106  A    between atoms: _278  and  _280
REMARK  107  A    between atoms: _280  and  _281
REMARK  108  A    between atoms: _280  and  _283
REMARK  109  A    between atoms: _283  and  _284
REMARK  110  A    between atoms: _287  and  _289
REMARK  111  A    between atoms: _289  and  _290
REMARK  112  A    between atoms: _293  and  _295
REMARK  113  A    between atoms: _295  and  _296
REMARK  114  A    between atoms: _295  and  _298
REMARK  115  A    between atoms: _298  and  _299
REMARK  116  A    between atoms: _302  and  _304
REMARK  117  A    between atoms: _304  and  _305
REMARK  118  A    between atoms: _304  and  _307
REMARK  119  A    between atoms: _307  and  _308
REMARK  120  A    between atoms: _308  and  _309
REMARK  121  A    between atoms: _312  and  _314
REMARK  122  A    between atoms: _314  and  _315
REMARK  123  A    between atoms: _314  and  _317
REMARK  124  A    between atoms: _317  and  _318
REMARK  125  A    between atoms: _323  and  _325
REMARK  126  A    between atoms: _325  and  _326
REMARK  127  A    between atoms: _328  and  _330
REMARK  128  A    between atoms: _330  and  _331
REMARK  129  A    between atoms: _330  and  _333
REMARK  130  A    between atoms: _336  and  _338
REMARK  131  A    between atoms: _338  and  _339
REMARK  132  A    between atoms: _342  and  _344
REMARK  133  A    between atoms: _344  and  _345
REMARK  134  A    between atoms: _344  and  _347
REMARK  135  A    between atoms: _347  and  _348
REMARK  136  A    between atoms: _353  and  _355
REMARK  137  A    between atoms: _355  and  _356
REMARK  138  A    between atoms: _355  and  _358
REMARK  139  A    between atoms: _358  and  _359
REMARK  140  A    between atoms: _359  and  _360
REMARK  141  A    between atoms: _360  and  _361
REMARK  142  A    between atoms: _361  and  _362
REMARK  143  A    between atoms: _366  and  _368
REMARK  144  A    between atoms: _368  and  _369
REMARK  145  A    between atoms: _368  and  _371
REMARK  146  A    between atoms: _371  and  _372
REMARK  147  A    between atoms: _377  and  _379
REMARK  148  A    between atoms: _379  and  _380
REMARK  149  A    between atoms: _382  and  _384
REMARK  150  A    between atoms: _384  and  _385
REMARK  151  A    between atoms: _384  and  _387
REMARK  152  A    between atoms: _387  and  _388
REMARK  153  A    between atoms: _391  and  _393
REMARK  154  A    between atoms: _393  and  _394
REMARK  155  A    between atoms: _393  and  _396
REMARK  156  A    between atoms: _396  and  _397
REMARK  157  A    between atoms: _397  and  _398
REMARK  158  A    between atoms: _398  and  _399
REMARK  159  A    between atoms: _399  and  _400
REMARK  160  A    between atoms: _404  and  _406
REMARK  161  A    between atoms: _406  and  _407
REMARK  162  A    between atoms: _406  and  _409
REMARK  163  A    between atoms: _409  and  _410
REMARK  164  A    between atoms: _410  and  _411
REMARK  165  A    between atoms: _411  and  _412
REMARK  166  A    between atoms: _421  and  _423
REMARK  167  A    between atoms: _423  and  _424
REMARK  168  A    between atoms: _423  and  _426
REMARK  169  A    between atoms: _426  and  _427
REMARK  170  A    between atoms: _432  and  _433
REMARK  171  A    between atoms: _435  and  _437
REMARK  172  A    between atoms: _437  and  _438
REMARK  173  A    between atoms: _437  and  _440
REMARK  174  A    between atoms: _440  and  _441
REMARK  175  A    between atoms: _441  and  _442
REMARK  176  A    between atoms: _442  and  _443
REMARK  177  A    between atoms: _443  and  _444
REMARK  178  A    between atoms: _448  and  _450
REMARK  179  A    between atoms: _450  and  _451
REMARK  180  A    between atoms: _450  and  _453
REMARK  181  A    between atoms: _453  and  _454
REMARK  182  A    between atoms: _456  and  _458
REMARK  183  A    between atoms: _458  and  _459
REMARK  184  A    between atoms: _458  and  _461
REMARK  185  A    between atoms: _461  and  _462
REMARK  186  A    between atoms: _465  and  _467
REMARK  187  A    between atoms: _467  and  _468
REMARK  188  A    between atoms: _467  and  _470
REMARK  189  A    between atoms: _470  and  _471
REMARK  190  A    between atoms: _471  and  _472
REMARK  191  A    between atoms: _475  and  _477
REMARK  192  A    between atoms: _477  and  _478
REMARK  193  A    between atoms: _481  and  _483
REMARK  194  A    between atoms: _483  and  _484
REMARK  195  A    between atoms: _483  and  _486
REMARK  196  A    between atoms: _486  and  _487
REMARK  197  A    between atoms: _489  and  _491
REMARK  198  A    between atoms: _491  and  _492
REMARK  199  A    between atoms: _494  and  _496
REMARK  200  A    between atoms: _496  and  _497
REMARK  201  A    between atoms: _496  and  _499
REMARK  202  A    between atoms: _499  and  _500
REMARK  203  A    between atoms: _503  and  _505
REMARK  204  A    between atoms: _505  and  _506
REMARK  205  A    between atoms: _508  and  _510
REMARK  206  A    between atoms: _510  and  _511
REMARK  207  A    between atoms: _510  and  _513
REMARK  208  A    between atoms: _513  and  _514
REMARK  209  A    between atoms: _519  and  _521
REMARK  210  A    between atoms: _521  and  _522
REMARK  211  A    between atoms: _521  and  _524
REMARK  212  A    between atoms: _524  and  _525
REMARK  213  A    between atoms: _525  and  _526
REMARK  214  A    between atoms: _533  and  _534
REMARK  215  A    between atoms: _534  and  _550
REMARK  216  A    between atoms: _535  and  _537
REMARK  217  A    between atoms: _537  and  _538
REMARK  218  A    between atoms: _538  and  _539
REMARK  219  A    between atoms: _543  and  _545
REMARK  220  A    between atoms: _545  and  _546
REMARK  221  A    between atoms: _545  and  _553
REMARK  222  A    between atoms: _546  and  _547
REMARK  223  A    between atoms: _547  and  _548
REMARK  224  A    between atoms: _548  and  _549
REMARK  225  A    between atoms: _549  and  _550
REMARK  226  A    between atoms: _555  and  _557
REMARK  227  A    between atoms: _557  and  _558
REMARK  228  A    between atoms: _557  and  _560
REMARK  229  A    between atoms: _560  and  _561
REMARK  230  A    between atoms: _564  and  _566
REMARK  231  A    between atoms: _566  and  _567
REMARK  232  A    between atoms: _569  and  _571
REMARK  233  A    between atoms: _571  and  _572
REMARK  234  A    between atoms: _575  and  _577
REMARK  235  A    between atoms: _577  and  _578
REMARK  236  A    between atoms: _577  and  _580
REMARK  237  A    between atoms: _580  and  _581
REMARK  238  A    between atoms: _586  and  _587
REMARK                            x       y       z     vdW  Elec       q    Type
REMARK                         _______ _______ _______ _____ _____    ______ ____
ROOT
ATOM      1  O   HOH     1      28.340  27.508  27.866  0.00  0.00    +0.000 OA
ENDROOT
TORSDOF 0
REMARK  Name = ../refined-set-2016/3l7b/3l7b_pocket.pdb
REMARK  238 active torsions:
REMARK  status: ('A' for Active; 'I' for Inactive)
REMARK    1  A    between atoms: _1  and  _3
REMARK    2  A    between atoms: _3  and  _4
REMARK    3  A    between atoms: _3  and  _6
REMARK    4  A    between atoms: _6  and  _7
REMARK    5  A    between atoms: _12  and  _13
REMARK    6  A    between atoms: _15  and  _17
REMARK    7  A    between atoms: _17  and  _18
REMARK    8  A    between atoms: _17  and  _20
REMARK    9  A    between atoms: _20  and  _21
REMARK   10  A    between atoms: _21  and  _22
REMARK   11  A    between atoms: _25  and  _27
REMARK   12  A    between atoms: _27  and  _28
REMARK   13  A    between atoms: _27  and  _30
REMARK   14  A    between atoms: _30  and  _31
REMARK   15  A    between atoms: _36  and  _37
REMARK   16  A    between atoms: _39  and  _41
REMARK   17  A    between atoms: _41  and  _42
REMARK   18  A    between atoms: _41  and  _44
REMARK   19  A    between atoms: _44  and  _45
REMARK   20  A    between atoms: _50  and  _52
REMARK   21  A    between atoms: _52  and  _53
REMARK   22  A    between atoms: _55  and  _57
REMARK   23  A    between atoms: _57  and  _58
REMARK   24  A    between atoms: _60  and  _62
REMARK   25  A    between atoms: _62  and  _63
REMARK   26  A    between atoms: _62  and  _65
REMARK   27  A    between atoms: _65  and  _66
REMARK   28  A    between atoms: _69  and  _71
REMARK   29  A    between atoms: _71  and  _72
REMARK   30  A    between atoms: _74  and  _76
REMARK   31  A    between atoms: _76  and  _77
REMARK   32  A    between atoms: _76  and  _79
REMARK   33  A    between atoms: _80  and  _81
REMARK   34  A    between atoms: _81  and  _82
REMARK   35  A    between atoms: _91  and  _93
REMARK   36  A    between atoms: _93  and  _94
REMARK   37  A    between atoms: _93  and  _96
REMARK   38  A    between atoms: _96  and  _97
REMARK   39  A    between atoms: _100  and  _102
REMARK   40  A    between atoms: _102  and  _103
REMARK   41  A    between atoms: _106  and  _108
REMARK   42  A    between atoms: _108  and  _109
REMARK   43  A    between atoms: _108  and  _111
REMARK   44  A    between atoms: _111  and  _112
REMARK   45  A    between atoms: _118  and  _120
REMARK   46  A    between atoms: _120  and  _121
REMARK   47  A    between atoms: _120  and  _123
REMARK   48  A    between atoms: _123  and  _124
REMARK   49  A    between atoms: _129  and  _131
REMARK   50  A    between atoms: _131  and  _132
REMARK   51  A    between atoms: _131  and  _134
REMARK   52  A    between atoms: _134  and  _135
REMARK   53  A    between atoms: _138  and  _140
REMARK   54  A    between atoms: _140  and  _141
REMARK   55  A    between atoms: _140  and  _143
REMARK   56  A    between atoms: _143  and  _144
REMARK   57  A    between atoms: _149  and  _151
REMARK   58  A    between atoms: _151  and  _152
REMARK   59  A    between atoms: _151  and  _154
REMARK   60  A    between atoms: _154  and  _155
REMARK   61  A    between atoms: _161  and  _163
REMARK   62  A    between atoms: _163  and  _164
REMARK   63  A    between atoms: _163  and  _166
REMARK   64  A    between atoms: _166  and  _167
REMARK   65  A    between atoms: _173  and  _175
REMARK   66  A    between atoms: _175  and  _176
REMARK   67  A    between atoms: _175  and  _178
REMARK   68  A    between atoms: _178  and  _179
REMARK   69  A    between atoms: _179  and  _180
REMARK   70  A    between atoms: _180  and  _181
REMARK   71  A    between atoms: _190  and  _192
REMARK   72  A    between atoms: _192  and  _193
REMARK   73  A    between atoms: _192  and  _195
REMARK   74  A    between atoms: _195  and  _196
REMARK   75  A    between atoms: _201  and  _203
REMARK   76  A    between atoms: _203  and  _204
REMARK   77  A    between atoms: _203  and  _206
REMARK   78  A    between atoms: _206  and  _207
REMARK   79  A    between atoms: _210  and  _212
REMARK   80  A    between atoms: _212  and  _213
REMARK   81  A    between atoms: _212  and  _215
REMARK   82  A    between atoms: _215  and  _216
REMARK   83  A    between atoms: _219  and  _221
REMARK   84  A    between atoms: _221  and  _222
REMARK   85  A    between atoms: _221  and  _224
REMARK   86  A    between atoms: _224  and  _225
REMARK   87  A    between atoms: _230  and  _232
REMARK   88  A    between atoms: _232  and  _233
REMARK   89  A    between atoms: _232  and  _235
REMARK   90  A    between atoms: _235  and  _236
REMARK   91  A    between atoms: _239  and  _241
REMARK   92  A    between atoms: _241  and  _242
REMARK   93  A    between atoms: _241  and  _244
REMARK   94  A    between atoms: _244  and  _245
REMARK   95  A    between atoms: _250  and  _252
REMARK   96  A    between atoms: _252  and  _253
REMARK   97  A    between atoms: _252  and  _255
REMARK   98  A    between atoms: _255  and  _256
REMARK   99  A    between atoms: _261  and  _263
REMARK  100  A    between atoms: _263  and  _264
REMARK  101  A    between atoms: _263  and  _266
REMARK  102  A    between atoms: _266  and  _267
REMARK  103  A    between atoms: _270  and  _272
REMARK  104  A    between atoms: _272  and  _273
REMARK  105  A    between atoms: _272  and  _275
REMARK  106  A    between atoms: _278  and  _280
REMARK  107  A    between atoms: _280  and  _281
REMARK  108  A    between atoms: _280  and  _283
REMARK  109  A    between atoms: _283  and  _284
REMARK  110  A    between atoms: _287  and  _289
REMARK  111  A    between atoms: _289  and  _290
REMARK  112  A    between atoms: _293  and  _295
REMARK  113  A    between atoms: _295  and  _296
REMARK  114  A    between atoms: _295  and  _298
REMARK  115  A    between atoms: _298  and  _299
REMARK  116  A    between atoms: _302  and  _304
REMARK  117  A    between atoms: _304  and  _305
REMARK  118  A    between atoms: _304  and  _307
REMARK  119  A    between atoms: _307  and  _308
REMARK  120  A    between atoms: _308  and  _309
REMARK  121  A    between atoms: _312  and  _314
REMARK  122  A    between atoms: _314  and  _315
REMARK  123  A    between atoms: _314  and  _317
REMARK  124  A    between atoms: _317  and  _318
REMARK  125  A    between atoms: _323  and  _325
REMARK  126  A    between atoms: _325  and  _326
REMARK  127  A    between atoms: _328  and  _330
REMARK  128  A    between atoms: _330  and  _331
REMARK  129  A    between atoms: _330  and  _333
REMARK  130  A    between atoms: _336  and  _338
REMARK  131  A    between atoms: _338  and  _339
REMARK  132  A    between atoms: _342  and  _344
REMARK  133  A    between atoms: _344  and  _345
REMARK  134  A    between atoms: _344  and  _347
REMARK  135  A    between atoms: _347  and  _348
REMARK  136  A    between atoms: _353  and  _355
REMARK  137  A    between atoms: _355  and  _356
REMARK  138  A    between atoms: _355  and  _358
REMARK  139  A    between atoms: _358  and  _359
REMARK  140  A    between atoms: _359  and  _360
REMARK  141  A    between atoms: _360  and  _361
REMARK  142  A    between atoms: _361  and  _362
REMARK  143  A    between atoms: _366  and  _368
REMARK  144  A    between atoms: _368  and  _369
REMARK  145  A    between atoms: _368  and  _371
REMARK  146  A    between atoms: _371  and  _372
REMARK  147  A    between atoms: _377  and  _379
REMARK  148  A    between atoms: _379  and  _380
REMARK  149  A    between atoms: _382  and  _384
REMARK  150  A    between atoms: _384  and  _385
REMARK  151  A    between atoms: _384  and  _387
REMARK  152  A    between atoms: _387  and  _388
REMARK  153  A    between atoms: _391  and  _393
REMARK  154  A    between atoms: _393  and  _394
REMARK  155  A    between atoms: _393  and  _396
REMARK  156  A    between atoms: _396  and  _397
REMARK  157  A    between atoms: _397  and  _398
REMARK  158  A    between atoms: _398  and  _399
REMARK  159  A    between atoms: _399  and  _400
REMARK  160  A    between atoms: _404  and  _406
REMARK  161  A    between atoms: _406  and  _407
REMARK  162  A    between atoms: _406  and  _409
REMARK  163  A    between atoms: _409  and  _410
REMARK  164  A    between atoms: _410  and  _411
REMARK  165  A    between atoms: _411  and  _412
REMARK  166  A    between atoms: _421  and  _423
REMARK  167  A    between atoms: _423  and  _424
REMARK  168  A    between atoms: _423  and  _426
REMARK  169  A    between atoms: _426  and  _427
REMARK  170  A    between atoms: _432  and  _433
REMARK  171  A    between atoms: _435  and  _437
REMARK  172  A    between atoms: _437  and  _438
REMARK  173  A    between atoms: _437  and  _440
REMARK  174  A    between atoms: _440  and  _441
REMARK  175  A    between atoms: _441  and  _442
REMARK  176  A    between atoms: _442  and  _443
REMARK  177  A    between atoms: _443  and  _444
REMARK  178  A    between atoms: _448  and  _450
REMARK  179  A    between atoms: _450  and  _451
REMARK  180  A    between atoms: _450  and  _453
REMARK  181  A    between atoms: _453  and  _454
REMARK  182  A    between atoms: _456  and  _458
REMARK  183  A    between atoms: _458  and  _459
REMARK  184  A    between atoms: _458  and  _461
REMARK  185  A    between atoms: _461  and  _462
REMARK  186  A    between atoms: _465  and  _467
REMARK  187  A    between atoms: _467  and  _468
REMARK  188  A    between atoms: _467  and  _470
REMARK  189  A    between atoms: _470  and  _471
REMARK  190  A    between atoms: _471  and  _472
REMARK  191  A    between atoms: _475  and  _477
REMARK  192  A    between atoms: _477  and  _478
REMARK  193  A    between atoms: _481  and  _483
REMARK  194  A    between atoms: _483  and  _484
REMARK  195  A    between atoms: _483  and  _486
REMARK  196  A    between atoms: _486  and  _487
REMARK  197  A    between atoms: _489  and  _491
REMARK  198  A    between atoms: _491  and  _492
REMARK  199  A    between atoms: _494  and  _496
REMARK  200  A    between atoms: _496  and  _497
REMARK  201  A    between atoms: _496  and  _499
REMARK  202  A    between atoms: _499  and  _500
REMARK  203  A    between atoms: _503  and  _505
REMARK  204  A    between atoms: _505  and  _506
REMARK  205  A    between atoms: _508  and  _510
REMARK  206  A    between atoms: _510  and  _511
REMARK  207  A    between atoms: _510  and  _513
REMARK  208  A    between atoms: _513  and  _514
REMARK  209  A    between atoms: _519  and  _521
REMARK  210  A    between atoms: _521  and  _522
REMARK  211  A    between atoms: _521  and  _524
REMARK  212  A    between atoms: _524  and  _525
REMARK  213  A    between atoms: _525  and  _526
REMARK  214  A    between atoms: _533  and  _534
REMARK  215  A    between atoms: _534  and  _550
REMARK  216  A    between atoms: _535  and  _537
REMARK  217  A    between atoms: _537  and  _538
REMARK  218  A    between atoms: _538  and  _539
REMARK  219  A    between atoms: _543  and  _545
REMARK  220  A    between atoms: _545  and  _546
REMARK  221  A    between atoms: _545  and  _553
REMARK  222  A    between atoms: _546  and  _547
REMARK  223  A    between atoms: _547  and  _548
REMARK  224  A    between atoms: _548  and  _549
REMARK  225  A    between atoms: _549  and  _550
REMARK  226  A    between atoms: _555  and  _557
REMARK  227  A    between atoms: _557  and  _558
REMARK  228  A    between atoms: _557  and  _560
REMARK  229  A    between atoms: _560  and  _561
REMARK  230  A    between atoms: _564  and  _566
REMARK  231  A    between atoms: _566  and  _567
REMARK  232  A    between atoms: _569  and  _571
REMARK  233  A    between atoms: _571  and  _572
REMARK  234  A    between atoms: _575  and  _577
REMARK  235  A    between atoms: _577  and  _578
REMARK  236  A    between atoms: _577  and  _580
REMARK  237  A    between atoms: _580  and  _581
REMARK  238  A    between atoms: _586  and  _587
REMARK                            x       y       z     vdW  Elec       q    Type
REMARK                         _______ _______ _______ _____ _____    ______ ____
ROOT
ATOM      1  O   HOH     1      27.159  23.480  21.804  0.00  0.00    +0.000 OA
ENDROOT
TORSDOF 0
REMARK  Name = ../refined-set-2016/3l7b/3l7b_pocket.pdb
REMARK  238 active torsions:
REMARK  status: ('A' for Active; 'I' for Inactive)
REMARK    1  A    between atoms: _1  and  _3
REMARK    2  A    between atoms: _3  and  _4
REMARK    3  A    between atoms: _3  and  _6
REMARK    4  A    between atoms: _6  and  _7
REMARK    5  A    between atoms: _12  and  _13
REMARK    6  A    between atoms: _15  and  _17
REMARK    7  A    between atoms: _17  and  _18
REMARK    8  A    between atoms: _17  and  _20
REMARK    9  A    between atoms: _20  and  _21
REMARK   10  A    between atoms: _21  and  _22
REMARK   11  A    between atoms: _25  and  _27
REMARK   12  A    between atoms: _27  and  _28
REMARK   13  A    between atoms: _27  and  _30
REMARK   14  A    between atoms: _30  and  _31
REMARK   15  A    between atoms: _36  and  _37
REMARK   16  A    between atoms: _39  and  _41
REMARK   17  A    between atoms: _41  and  _42
REMARK   18  A    between atoms: _41  and  _44
REMARK   19  A    between atoms: _44  and  _45
REMARK   20  A    between atoms: _50  and  _52
REMARK   21  A    between atoms: _52  and  _53
REMARK   22  A    between atoms: _55  and  _57
REMARK   23  A    between atoms: _57  and  _58
REMARK   24  A    between atoms: _60  and  _62
REMARK   25  A    between atoms: _62  and  _63
REMARK   26  A    between atoms: _62  and  _65
REMARK   27  A    between atoms: _65  and  _66
REMARK   28  A    between atoms: _69  and  _71
REMARK   29  A    between atoms: _71  and  _72
REMARK   30  A    between atoms: _74  and  _76
REMARK   31  A    between atoms: _76  and  _77
REMARK   32  A    between atoms: _76  and  _79
REMARK   33  A    between atoms: _80  and  _81
REMARK   34  A    between atoms: _81  and  _82
REMARK   35  A    between atoms: _91  and  _93
REMARK   36  A    between atoms: _93  and  _94
REMARK   37  A    between atoms: _93  and  _96
REMARK   38  A    between atoms: _96  and  _97
REMARK   39  A    between atoms: _100  and  _102
REMARK   40  A    between atoms: _102  and  _103
REMARK   41  A    between atoms: _106  and  _108
REMARK   42  A    between atoms: _108  and  _109
REMARK   43  A    between atoms: _108  and  _111
REMARK   44  A    between atoms: _111  and  _112
REMARK   45  A    between atoms: _118  and  _120
REMARK   46  A    between atoms: _120  and  _121
REMARK   47  A    between atoms: _120  and  _123
REMARK   48  A    between atoms: _123  and  _124
REMARK   49  A    between atoms: _129  and  _131
REMARK   50  A    between atoms: _131  and  _132
REMARK   51  A    between atoms: _131  and  _134
REMARK   52  A    between atoms: _134  and  _135
REMARK   53  A    between atoms: _138  and  _140
REMARK   54  A    between atoms: _140  and  _141
REMARK   55  A    between atoms: _140  and  _143
REMARK   56  A    between atoms: _143  and  _144
REMARK   57  A    between atoms: _149  and  _151
REMARK   58  A    between atoms: _151  and  _152
REMARK   59  A    between atoms: _151  and  _154
REMARK   60  A    between atoms: _154  and  _155
REMARK   61  A    between atoms: _161  and  _163
REMARK   62  A    between atoms: _163  and  _164
REMARK   63  A    between atoms: _163  and  _166
REMARK   64  A    between atoms: _166  and  _167
REMARK   65  A    between atoms: _173  and  _175
REMARK   66  A    between atoms: _175  and  _176
REMARK   67  A    between atoms: _175  and  _178
REMARK   68  A    between atoms: _178  and  _179
REMARK   69  A    between atoms: _179  and  _180
REMARK   70  A    between atoms: _180  and  _181
REMARK   71  A    between atoms: _190  and  _192
REMARK   72  A    between atoms: _192  and  _193
REMARK   73  A    between atoms: _192  and  _195
REMARK   74  A    between atoms: _195  and  _196
REMARK   75  A    between atoms: _201  and  _203
REMARK   76  A    between atoms: _203  and  _204
REMARK   77  A    between atoms: _203  and  _206
REMARK   78  A    between atoms: _206  and  _207
REMARK   79  A    between atoms: _210  and  _212
REMARK   80  A    between atoms: _212  and  _213
REMARK   81  A    between atoms: _212  and  _215
REMARK   82  A    between atoms: _215  and  _216
REMARK   83  A    between atoms: _219  and  _221
REMARK   84  A    between atoms: _221  and  _222
REMARK   85  A    between atoms: _221  and  _224
REMARK   86  A    between atoms: _224  and  _225
REMARK   87  A    between atoms: _230  and  _232
REMARK   88  A    between atoms: _232  and  _233
REMARK   89  A    between atoms: _232  and  _235
REMARK   90  A    between atoms: _235  and  _236
REMARK   91  A    between atoms: _239  and  _241
REMARK   92  A    between atoms: _241  and  _242
REMARK   93  A    between atoms: _241  and  _244
REMARK   94  A    between atoms: _244  and  _245
REMARK   95  A    between atoms: _250  and  _252
REMARK   96  A    between atoms: _252  and  _253
REMARK   97  A    between atoms: _252  and  _255
REMARK   98  A    between atoms: _255  and  _256
REMARK   99  A    between atoms: _261  and  _263
REMARK  100  A    between atoms: _263  and  _264
REMARK  101  A    between atoms: _263  and  _266
REMARK  102  A    between atoms: _266  and  _267
REMARK  103  A    between atoms: _270  and  _272
REMARK  104  A    between atoms: _272  and  _273
REMARK  105  A    between atoms: _272  and  _275
REMARK  106  A    between atoms: _278  and  _280
REMARK  107  A    between atoms: _280  and  _281
REMARK  108  A    between atoms: _280  and  _283
REMARK  109  A    between atoms: _283  and  _284
REMARK  110  A    between atoms: _287  and  _289
REMARK  111  A    between atoms: _289  and  _290
REMARK  112  A    between atoms: _293  and  _295
REMARK  113  A    between atoms: _295  and  _296
REMARK  114  A    between atoms: _295  and  _298
REMARK  115  A    between atoms: _298  and  _299
REMARK  116  A    between atoms: _302  and  _304
REMARK  117  A    between atoms: _304  and  _305
REMARK  118  A    between atoms: _304  and  _307
REMARK  119  A    between atoms: _307  and  _308
REMARK  120  A    between atoms: _308  and  _309
REMARK  121  A    between atoms: _312  and  _314
REMARK  122  A    between atoms: _314  and  _315
REMARK  123  A    between atoms: _314  and  _317
REMARK  124  A    between atoms: _317  and  _318
REMARK  125  A    between atoms: _323  and  _325
REMARK  126  A    between atoms: _325  and  _326
REMARK  127  A    between atoms: _328  and  _330
REMARK  128  A    between atoms: _330  and  _331
REMARK  129  A    between atoms: _330  and  _333
REMARK  130  A    between atoms: _336  and  _338
REMARK  131  A    between atoms: _338  and  _339
REMARK  132  A    between atoms: _342  and  _344
REMARK  133  A    between atoms: _344  and  _345
REMARK  134  A    between atoms: _344  and  _347
REMARK  135  A    between atoms: _347  and  _348
REMARK  136  A    between atoms: _353  and  _355
REMARK  137  A    between atoms: _355  and  _356
REMARK  138  A    between atoms: _355  and  _358
REMARK  139  A    between atoms: _358  and  _359
REMARK  140  A    between atoms: _359  and  _360
REMARK  141  A    between atoms: _360  and  _361
REMARK  142  A    between atoms: _361  and  _362
REMARK  143  A    between atoms: _366  and  _368
REMARK  144  A    between atoms: _368  and  _369
REMARK  145  A    between atoms: _368  and  _371
REMARK  146  A    between atoms: _371  and  _372
REMARK  147  A    between atoms: _377  and  _379
REMARK  148  A    between atoms: _379  and  _380
REMARK  149  A    between atoms: _382  and  _384
REMARK  150  A    between atoms: _384  and  _385
REMARK  151  A    between atoms: _384  and  _387
REMARK  152  A    between atoms: _387  and  _388
REMARK  153  A    between atoms: _391  and  _393
REMARK  154  A    between atoms: _393  and  _394
REMARK  155  A    between atoms: _393  and  _396
REMARK  156  A    between atoms: _396  and  _397
REMARK  157  A    between atoms: _397  and  _398
REMARK  158  A    between atoms: _398  and  _399
REMARK  159  A    between atoms: _399  and  _400
REMARK  160  A    between atoms: _404  and  _406
REMARK  161  A    between atoms: _406  and  _407
REMARK  162  A    between atoms: _406  and  _409
REMARK  163  A    between atoms: _409  and  _410
REMARK  164  A    between atoms: _410  and  _411
REMARK  165  A    between atoms: _411  and  _412
REMARK  166  A    between atoms: _421  and  _423
REMARK  167  A    between atoms: _423  and  _424
REMARK  168  A    between atoms: _423  and  _426
REMARK  169  A    between atoms: _426  and  _427
REMARK  170  A    between atoms: _432  and  _433
REMARK  171  A    between atoms: _435  and  _437
REMARK  172  A    between atoms: _437  and  _438
REMARK  173  A    between atoms: _437  and  _440
REMARK  174  A    between atoms: _440  and  _441
REMARK  175  A    between atoms: _441  and  _442
REMARK  176  A    between atoms: _442  and  _443
REMARK  177  A    between atoms: _443  and  _444
REMARK  178  A    between atoms: _448  and  _450
REMARK  179  A    between atoms: _450  and  _451
REMARK  180  A    between atoms: _450  and  _453
REMARK  181  A    between atoms: _453  and  _454
REMARK  182  A    between atoms: _456  and  _458
REMARK  183  A    between atoms: _458  and  _459
REMARK  184  A    between atoms: _458  and  _461
REMARK  185  A    between atoms: _461  and  _462
REMARK  186  A    between atoms: _465  and  _467
REMARK  187  A    between atoms: _467  and  _468
REMARK  188  A    between atoms: _467  and  _470
REMARK  189  A    between atoms: _470  and  _471
REMARK  190  A    between atoms: _471  and  _472
REMARK  191  A    between atoms: _475  and  _477
REMARK  192  A    between atoms: _477  and  _478
REMARK  193  A    between atoms: _481  and  _483
REMARK  194  A    between atoms: _483  and  _484
REMARK  195  A    between atoms: _483  and  _486
REMARK  196  A    between atoms: _486  and  _487
REMARK  197  A    between atoms: _489  and  _491
REMARK  198  A    between atoms: _491  and  _492
REMARK  199  A    between atoms: _494  and  _496
REMARK  200  A    between atoms: _496  and  _497
REMARK  201  A    between atoms: _496  and  _499
REMARK  202  A    between atoms: _499  and  _500
REMARK  203  A    between atoms: _503  and  _505
REMARK  204  A    between atoms: _505  and  _506
REMARK  205  A    between atoms: _508  and  _510
REMARK  206  A    between atoms: _510  and  _511
REMARK  207  A    between atoms: _510  and  _513
REMARK  208  A    between atoms: _513  and  _514
REMARK  209  A    between atoms: _519  and  _521
REMARK  210  A    between atoms: _521  and  _522
REMARK  211  A    between atoms: _521  and  _524
REMARK  212  A    between atoms: _524  and  _525
REMARK  213  A    between atoms: _525  and  _526
REMARK  214  A    between atoms: _533  and  _534
REMARK  215  A    between atoms: _534  and  _550
REMARK  216  A    between atoms: _535  and  _537
REMARK  217  A    between atoms: _537  and  _538
REMARK  218  A    between atoms: _538  and  _539
REMARK  219  A    between atoms: _543  and  _545
REMARK  220  A    between atoms: _545  and  _546
REMARK  221  A    between atoms: _545  and  _553
REMARK  222  A    between atoms: _546  and  _547
REMARK  223  A    between atoms: _547  and  _548
REMARK  224  A    between atoms: _548  and  _549
REMARK  225  A    between atoms: _549  and  _550
REMARK  226  A    between atoms: _555  and  _557
REMARK  227  A    between atoms: _557  and  _558
REMARK  228  A    between atoms: _557  and  _560
REMARK  229  A    between atoms: _560  and  _561
REMARK  230  A    between atoms: _564  and  _566
REMARK  231  A    between atoms: _566  and  _567
REMARK  232  A    between atoms: _569  and  _571
REMARK  233  A    between atoms: _571  and  _572
REMARK  234  A    between atoms: _575  and  _577
REMARK  235  A    between atoms: _577  and  _578
REMARK  236  A    between atoms: _577  and  _580
REMARK  237  A    between atoms: _580  and  _581
REMARK  238  A    between atoms: _586  and  _587
REMARK                            x       y       z     vdW  Elec       q    Type
REMARK                         _______ _______ _______ _____ _____    ______ ____
ROOT
ATOM      1  O   HOH     1      35.552  12.746  31.247  0.00  0.00    +0.000 OA
ENDROOT
TORSDOF 0
REMARK  Name = ../refined-set-2016/3l7b/3l7b_pocket.pdb
REMARK  238 active torsions:
REMARK  status: ('A' for Active; 'I' for Inactive)
REMARK    1  A    between atoms: _1  and  _3
REMARK    2  A    between atoms: _3  and  _4
REMARK    3  A    between atoms: _3  and  _6
REMARK    4  A    between atoms: _6  and  _7
REMARK    5  A    between atoms: _12  and  _13
REMARK    6  A    between atoms: _15  and  _17
REMARK    7  A    between atoms: _17  and  _18
REMARK    8  A    between atoms: _17  and  _20
REMARK    9  A    between atoms: _20  and  _21
REMARK   10  A    between atoms: _21  and  _22
REMARK   11  A    between atoms: _25  and  _27
REMARK   12  A    between atoms: _27  and  _28
REMARK   13  A    between atoms: _27  and  _30
REMARK   14  A    between atoms: _30  and  _31
REMARK   15  A    between atoms: _36  and  _37
REMARK   16  A    between atoms: _39  and  _41
REMARK   17  A    between atoms: _41  and  _42
REMARK   18  A    between atoms: _41  and  _44
REMARK   19  A    between atoms: _44  and  _45
REMARK   20  A    between atoms: _50  and  _52
REMARK   21  A    between atoms: _52  and  _53
REMARK   22  A    between atoms: _55  and  _57
REMARK   23  A    between atoms: _57  and  _58
REMARK   24  A    between atoms: _60  and  _62
REMARK   25  A    between atoms: _62  and  _63
REMARK   26  A    between atoms: _62  and  _65
REMARK   27  A    between atoms: _65  and  _66
REMARK   28  A    between atoms: _69  and  _71
REMARK   29  A    between atoms: _71  and  _72
REMARK   30  A    between atoms: _74  and  _76
REMARK   31  A    between atoms: _76  and  _77
REMARK   32  A    between atoms: _76  and  _79
REMARK   33  A    between atoms: _80  and  _81
REMARK   34  A    between atoms: _81  and  _82
REMARK   35  A    between atoms: _91  and  _93
REMARK   36  A    between atoms: _93  and  _94
REMARK   37  A    between atoms: _93  and  _96
REMARK   38  A    between atoms: _96  and  _97
REMARK   39  A    between atoms: _100  and  _102
REMARK   40  A    between atoms: _102  and  _103
REMARK   41  A    between atoms: _106  and  _108
REMARK   42  A    between atoms: _108  and  _109
REMARK   43  A    between atoms: _108  and  _111
REMARK   44  A    between atoms: _111  and  _112
REMARK   45  A    between atoms: _118  and  _120
REMARK   46  A    between atoms: _120  and  _121
REMARK   47  A    between atoms: _120  and  _123
REMARK   48  A    between atoms: _123  and  _124
REMARK   49  A    between atoms: _129  and  _131
REMARK   50  A    between atoms: _131  and  _132
REMARK   51  A    between atoms: _131  and  _134
REMARK   52  A    between atoms: _134  and  _135
REMARK   53  A    between atoms: _138  and  _140
REMARK   54  A    between atoms: _140  and  _141
REMARK   55  A    between atoms: _140  and  _143
REMARK   56  A    between atoms: _143  and  _144
REMARK   57  A    between atoms: _149  and  _151
REMARK   58  A    between atoms: _151  and  _152
REMARK   59  A    between atoms: _151  and  _154
REMARK   60  A    between atoms: _154  and  _155
REMARK   61  A    between atoms: _161  and  _163
REMARK   62  A    between atoms: _163  and  _164
REMARK   63  A    between atoms: _163  and  _166
REMARK   64  A    between atoms: _166  and  _167
REMARK   65  A    between atoms: _173  and  _175
REMARK   66  A    between atoms: _175  and  _176
REMARK   67  A    between atoms: _175  and  _178
REMARK   68  A    between atoms: _178  and  _179
REMARK   69  A    between atoms: _179  and  _180
REMARK   70  A    between atoms: _180  and  _181
REMARK   71  A    between atoms: _190  and  _192
REMARK   72  A    between atoms: _192  and  _193
REMARK   73  A    between atoms: _192  and  _195
REMARK   74  A    between atoms: _195  and  _196
REMARK   75  A    between atoms: _201  and  _203
REMARK   76  A    between atoms: _203  and  _204
REMARK   77  A    between atoms: _203  and  _206
REMARK   78  A    between atoms: _206  and  _207
REMARK   79  A    between atoms: _210  and  _212
REMARK   80  A    between atoms: _212  and  _213
REMARK   81  A    between atoms: _212  and  _215
REMARK   82  A    between atoms: _215  and  _216
REMARK   83  A    between atoms: _219  and  _221
REMARK   84  A    between atoms: _221  and  _222
REMARK   85  A    between atoms: _221  and  _224
REMARK   86  A    between atoms: _224  and  _225
REMARK   87  A    between atoms: _230  and  _232
REMARK   88  A    between atoms: _232  and  _233
REMARK   89  A    between atoms: _232  and  _235
REMARK   90  A    between atoms: _235  and  _236
REMARK   91  A    between atoms: _239  and  _241
REMARK   92  A    between atoms: _241  and  _242
REMARK   93  A    between atoms: _241  and  _244
REMARK   94  A    between atoms: _244  and  _245
REMARK   95  A    between atoms: _250  and  _252
REMARK   96  A    between atoms: _252  and  _253
REMARK   97  A    between atoms: _252  and  _255
REMARK   98  A    between atoms: _255  and  _256
REMARK   99  A    between atoms: _261  and  _263
REMARK  100  A    between atoms: _263  and  _264
REMARK  101  A    between atoms: _263  and  _266
REMARK  102  A    between atoms: _266  and  _267
REMARK  103  A    between atoms: _270  and  _272
REMARK  104  A    between atoms: _272  and  _273
REMARK  105  A    between atoms: _272  and  _275
REMARK  106  A    between atoms: _278  and  _280
REMARK  107  A    between atoms: _280  and  _281
REMARK  108  A    between atoms: _280  and  _283
REMARK  109  A    between atoms: _283  and  _284
REMARK  110  A    between atoms: _287  and  _289
REMARK  111  A    between atoms: _289  and  _290
REMARK  112  A    between atoms: _293  and  _295
REMARK  113  A    between atoms: _295  and  _296
REMARK  114  A    between atoms: _295  and  _298
REMARK  115  A    between atoms: _298  and  _299
REMARK  116  A    between atoms: _302  and  _304
REMARK  117  A    between atoms: _304  and  _305
REMARK  118  A    between atoms: _304  and  _307
REMARK  119  A    between atoms: _307  and  _308
REMARK  120  A    between atoms: _308  and  _309
REMARK  121  A    between atoms: _312  and  _314
REMARK  122  A    between atoms: _314  and  _315
REMARK  123  A    between atoms: _314  and  _317
REMARK  124  A    between atoms: _317  and  _318
REMARK  125  A    between atoms: _323  and  _325
REMARK  126  A    between atoms: _325  and  _326
REMARK  127  A    between atoms: _328  and  _330
REMARK  128  A    between atoms: _330  and  _331
REMARK  129  A    between atoms: _330  and  _333
REMARK  130  A    between atoms: _336  and  _338
REMARK  131  A    between atoms: _338  and  _339
REMARK  132  A    between atoms: _342  and  _344
REMARK  133  A    between atoms: _344  and  _345
REMARK  134  A    between atoms: _344  and  _347
REMARK  135  A    between atoms: _347  and  _348
REMARK  136  A    between atoms: _353  and  _355
REMARK  137  A    between atoms: _355  and  _356
REMARK  138  A    between atoms: _355  and  _358
REMARK  139  A    between atoms: _358  and  _359
REMARK  140  A    between atoms: _359  and  _360
REMARK  141  A    between atoms: _360  and  _361
REMARK  142  A    between atoms: _361  and  _362
REMARK  143  A    between atoms: _366  and  _368
REMARK  144  A    between atoms: _368  and  _369
REMARK  145  A    between atoms: _368  and  _371
REMARK  146  A    between atoms: _371  and  _372
REMARK  147  A    between atoms: _377  and  _379
REMARK  148  A    between atoms: _379  and  _380
REMARK  149  A    between atoms: _382  and  _384
REMARK  150  A    between atoms: _384  and  _385
REMARK  151  A    between atoms: _384  and  _387
REMARK  152  A    between atoms: _387  and  _388
REMARK  153  A    between atoms: _391  and  _393
REMARK  154  A    between atoms: _393  and  _394
REMARK  155  A    between atoms: _393  and  _396
REMARK  156  A    between atoms: _396  and  _397
REMARK  157  A    between atoms: _397  and  _398
REMARK  158  A    between atoms: _398  and  _399
REMARK  159  A    between atoms: _399  and  _400
REMARK  160  A    between atoms: _404  and  _406
REMARK  161  A    between atoms: _406  and  _407
REMARK  162  A    between atoms: _406  and  _409
REMARK  163  A    between atoms: _409  and  _410
REMARK  164  A    between atoms: _410  and  _411
REMARK  165  A    between atoms: _411  and  _412
REMARK  166  A    between atoms: _421  and  _423
REMARK  167  A    between atoms: _423  and  _424
REMARK  168  A    between atoms: _423  and  _426
REMARK  169  A    between atoms: _426  and  _427
REMARK  170  A    between atoms: _432  and  _433
REMARK  171  A    between atoms: _435  and  _437
REMARK  172  A    between atoms: _437  and  _438
REMARK  173  A    between atoms: _437  and  _440
REMARK  174  A    between atoms: _440  and  _441
REMARK  175  A    between atoms: _441  and  _442
REMARK  176  A    between atoms: _442  and  _443
REMARK  177  A    between atoms: _443  and  _444
REMARK  178  A    between atoms: _448  and  _450
REMARK  179  A    between atoms: _450  and  _451
REMARK  180  A    between atoms: _450  and  _453
REMARK  181  A    between atoms: _453  and  _454
REMARK  182  A    between atoms: _456  and  _458
REMARK  183  A    between atoms: _458  and  _459
REMARK  184  A    between atoms: _458  and  _461
REMARK  185  A    between atoms: _461  and  _462
REMARK  186  A    between atoms: _465  and  _467
REMARK  187  A    between atoms: _467  and  _468
REMARK  188  A    between atoms: _467  and  _470
REMARK  189  A    between atoms: _470  and  _471
REMARK  190  A    between atoms: _471  and  _472
REMARK  191  A    between atoms: _475  and  _477
REMARK  192  A    between atoms: _477  and  _478
REMARK  193  A    between atoms: _481  and  _483
REMARK  194  A    between atoms: _483  and  _484
REMARK  195  A    between atoms: _483  and  _486
REMARK  196  A    between atoms: _486  and  _487
REMARK  197  A    between atoms: _489  and  _491
REMARK  198  A    between atoms: _491  and  _492
REMARK  199  A    between atoms: _494  and  _496
REMARK  200  A    between atoms: _496  and  _497
REMARK  201  A    between atoms: _496  and  _499
REMARK  202  A    between atoms: _499  and  _500
REMARK  203  A    between atoms: _503  and  _505
REMARK  204  A    between atoms: _505  and  _506
REMARK  205  A    between atoms: _508  and  _510
REMARK  206  A    between atoms: _510  and  _511
REMARK  207  A    between atoms: _510  and  _513
REMARK  208  A    between atoms: _513  and  _514
REMARK  209  A    between atoms: _519  and  _521
REMARK  210  A    between atoms: _521  and  _522
REMARK  211  A    between atoms: _521  and  _524
REMARK  212  A    between atoms: _524  and  _525
REMARK  213  A    between atoms: _525  and  _526
REMARK  214  A    between atoms: _533  and  _534
REMARK  215  A    between atoms: _534  and  _550
REMARK  216  A    between atoms: _535  and  _537
REMARK  217  A    between atoms: _537  and  _538
REMARK  218  A    between atoms: _538  and  _539
REMARK  219  A    between atoms: _543  and  _545
REMARK  220  A    between atoms: _545  and  _546
REMARK  221  A    between atoms: _545  and  _553
REMARK  222  A    between atoms: _546  and  _547
REMARK  223  A    between atoms: _547  and  _548
REMARK  224  A    between atoms: _548  and  _549
REMARK  225  A    between atoms: _549  and  _550
REMARK  226  A    between atoms: _555  and  _557
REMARK  227  A    between atoms: _557  and  _558
REMARK  228  A    between atoms: _557  and  _560
REMARK  229  A    between atoms: _560  and  _561
REMARK  230  A    between atoms: _564  and  _566
REMARK  231  A    between atoms: _566  and  _567
REMARK  232  A    between atoms: _569  and  _571
REMARK  233  A    between atoms: _571  and  _572
REMARK  234  A    between atoms: _575  and  _577
REMARK  235  A    between atoms: _577  and  _578
REMARK  236  A    between atoms: _577  and  _580
REMARK  237  A    between atoms: _580  and  _581
REMARK  238  A    between atoms: _586  and  _587
REMARK                            x       y       z     vdW  Elec       q    Type
REMARK                         _______ _______ _______ _____ _____    ______ ____
ROOT
ATOM      1  O   HOH     1      36.924  19.591  37.302  0.00  0.00    +0.000 OA
ENDROOT
TORSDOF 0
REMARK  Name = ../refined-set-2016/3l7b/3l7b_pocket.pdb
REMARK  238 active torsions:
REMARK  status: ('A' for Active; 'I' for Inactive)
REMARK    1  A    between atoms: _1  and  _3
REMARK    2  A    between atoms: _3  and  _4
REMARK    3  A    between atoms: _3  and  _6
REMARK    4  A    between atoms: _6  and  _7
REMARK    5  A    between atoms: _12  and  _13
REMARK    6  A    between atoms: _15  and  _17
REMARK    7  A    between atoms: _17  and  _18
REMARK    8  A    between atoms: _17  and  _20
REMARK    9  A    between atoms: _20  and  _21
REMARK   10  A    between atoms: _21  and  _22
REMARK   11  A    between atoms: _25  and  _27
REMARK   12  A    between atoms: _27  and  _28
REMARK   13  A    between atoms: _27  and  _30
REMARK   14  A    between atoms: _30  and  _31
REMARK   15  A    between atoms: _36  and  _37
REMARK   16  A    between atoms: _39  and  _41
REMARK   17  A    between atoms: _41  and  _42
REMARK   18  A    between atoms: _41  and  _44
REMARK   19  A    between atoms: _44  and  _45
REMARK   20  A    between atoms: _50  and  _52
REMARK   21  A    between atoms: _52  and  _53
REMARK   22  A    between atoms: _55  and  _57
REMARK   23  A    between atoms: _57  and  _58
REMARK   24  A    between atoms: _60  and  _62
REMARK   25  A    between atoms: _62  and  _63
REMARK   26  A    between atoms: _62  and  _65
REMARK   27  A    between atoms: _65  and  _66
REMARK   28  A    between atoms: _69  and  _71
REMARK   29  A    between atoms: _71  and  _72
REMARK   30  A    between atoms: _74  and  _76
REMARK   31  A    between atoms: _76  and  _77
REMARK   32  A    between atoms: _76  and  _79
REMARK   33  A    between atoms: _80  and  _81
REMARK   34  A    between atoms: _81  and  _82
REMARK   35  A    between atoms: _91  and  _93
REMARK   36  A    between atoms: _93  and  _94
REMARK   37  A    between atoms: _93  and  _96
REMARK   38  A    between atoms: _96  and  _97
REMARK   39  A    between atoms: _100  and  _102
REMARK   40  A    between atoms: _102  and  _103
REMARK   41  A    between atoms: _106  and  _108
REMARK   42  A    between atoms: _108  and  _109
REMARK   43  A    between atoms: _108  and  _111
REMARK   44  A    between atoms: _111  and  _112
REMARK   45  A    between atoms: _118  and  _120
REMARK   46  A    between atoms: _120  and  _121
REMARK   47  A    between atoms: _120  and  _123
REMARK   48  A    between atoms: _123  and  _124
REMARK   49  A    between atoms: _129  and  _131
REMARK   50  A    between atoms: _131  and  _132
REMARK   51  A    between atoms: _131  and  _134
REMARK   52  A    between atoms: _134  and  _135
REMARK   53  A    between atoms: _138  and  _140
REMARK   54  A    between atoms: _140  and  _141
REMARK   55  A    between atoms: _140  and  _143
REMARK   56  A    between atoms: _143  and  _144
REMARK   57  A    between atoms: _149  and  _151
REMARK   58  A    between atoms: _151  and  _152
REMARK   59  A    between atoms: _151  and  _154
REMARK   60  A    between atoms: _154  and  _155
REMARK   61  A    between atoms: _161  and  _163
REMARK   62  A    between atoms: _163  and  _164
REMARK   63  A    between atoms: _163  and  _166
REMARK   64  A    between atoms: _166  and  _167
REMARK   65  A    between atoms: _173  and  _175
REMARK   66  A    between atoms: _175  and  _176
REMARK   67  A    between atoms: _175  and  _178
REMARK   68  A    between atoms: _178  and  _179
REMARK   69  A    between atoms: _179  and  _180
REMARK   70  A    between atoms: _180  and  _181
REMARK   71  A    between atoms: _190  and  _192
REMARK   72  A    between atoms: _192  and  _193
REMARK   73  A    between atoms: _192  and  _195
REMARK   74  A    between atoms: _195  and  _196
REMARK   75  A    between atoms: _201  and  _203
REMARK   76  A    between atoms: _203  and  _204
REMARK   77  A    between atoms: _203  and  _206
REMARK   78  A    between atoms: _206  and  _207
REMARK   79  A    between atoms: _210  and  _212
REMARK   80  A    between atoms: _212  and  _213
REMARK   81  A    between atoms: _212  and  _215
REMARK   82  A    between atoms: _215  and  _216
REMARK   83  A    between atoms: _219  and  _221
REMARK   84  A    between atoms: _221  and  _222
REMARK   85  A    between atoms: _221  and  _224
REMARK   86  A    between atoms: _224  and  _225
REMARK   87  A    between atoms: _230  and  _232
REMARK   88  A    between atoms: _232  and  _233
REMARK   89  A    between atoms: _232  and  _235
REMARK   90  A    between atoms: _235  and  _236
REMARK   91  A    between atoms: _239  and  _241
REMARK   92  A    between atoms: _241  and  _242
REMARK   93  A    between atoms: _241  and  _244
REMARK   94  A    between atoms: _244  and  _245
REMARK   95  A    between atoms: _250  and  _252
REMARK   96  A    between atoms: _252  and  _253
REMARK   97  A    between atoms: _252  and  _255
REMARK   98  A    between atoms: _255  and  _256
REMARK   99  A    between atoms: _261  and  _263
REMARK  100  A    between atoms: _263  and  _264
REMARK  101  A    between atoms: _263  and  _266
REMARK  102  A    between atoms: _266  and  _267
REMARK  103  A    between atoms: _270  and  _272
REMARK  104  A    between atoms: _272  and  _273
REMARK  105  A    between atoms: _272  and  _275
REMARK  106  A    between atoms: _278  and  _280
REMARK  107  A    between atoms: _280  and  _281
REMARK  108  A    between atoms: _280  and  _283
REMARK  109  A    between atoms: _283  and  _284
REMARK  110  A    between atoms: _287  and  _289
REMARK  111  A    between atoms: _289  and  _290
REMARK  112  A    between atoms: _293  and  _295
REMARK  113  A    between atoms: _295  and  _296
REMARK  114  A    between atoms: _295  and  _298
REMARK  115  A    between atoms: _298  and  _299
REMARK  116  A    between atoms: _302  and  _304
REMARK  117  A    between atoms: _304  and  _305
REMARK  118  A    between atoms: _304  and  _307
REMARK  119  A    between atoms: _307  and  _308
REMARK  120  A    between atoms: _308  and  _309
REMARK  121  A    between atoms: _312  and  _314
REMARK  122  A    between atoms: _314  and  _315
REMARK  123  A    between atoms: _314  and  _317
REMARK  124  A    between atoms: _317  and  _318
REMARK  125  A    between atoms: _323  and  _325
REMARK  126  A    between atoms: _325  and  _326
REMARK  127  A    between atoms: _328  and  _330
REMARK  128  A    between atoms: _330  and  _331
REMARK  129  A    between atoms: _330  and  _333
REMARK  130  A    between atoms: _336  and  _338
REMARK  131  A    between atoms: _338  and  _339
REMARK  132  A    between atoms: _342  and  _344
REMARK  133  A    between atoms: _344  and  _345
REMARK  134  A    between atoms: _344  and  _347
REMARK  135  A    between atoms: _347  and  _348
REMARK  136  A    between atoms: _353  and  _355
REMARK  137  A    between atoms: _355  and  _356
REMARK  138  A    between atoms: _355  and  _358
REMARK  139  A    between atoms: _358  and  _359
REMARK  140  A    between atoms: _359  and  _360
REMARK  141  A    between atoms: _360  and  _361
REMARK  142  A    between atoms: _361  and  _362
REMARK  143  A    between atoms: _366  and  _368
REMARK  144  A    between atoms: _368  and  _369
REMARK  145  A    between atoms: _368  and  _371
REMARK  146  A    between atoms: _371  and  _372
REMARK  147  A    between atoms: _377  and  _379
REMARK  148  A    between atoms: _379  and  _380
REMARK  149  A    between atoms: _382  and  _384
REMARK  150  A    between atoms: _384  and  _385
REMARK  151  A    between atoms: _384  and  _387
REMARK  152  A    between atoms: _387  and  _388
REMARK  153  A    between atoms: _391  and  _393
REMARK  154  A    between atoms: _393  and  _394
REMARK  155  A    between atoms: _393  and  _396
REMARK  156  A    between atoms: _396  and  _397
REMARK  157  A    between atoms: _397  and  _398
REMARK  158  A    between atoms: _398  and  _399
REMARK  159  A    between atoms: _399  and  _400
REMARK  160  A    between atoms: _404  and  _406
REMARK  161  A    between atoms: _406  and  _407
REMARK  162  A    between atoms: _406  and  _409
REMARK  163  A    between atoms: _409  and  _410
REMARK  164  A    between atoms: _410  and  _411
REMARK  165  A    between atoms: _411  and  _412
REMARK  166  A    between atoms: _421  and  _423
REMARK  167  A    between atoms: _423  and  _424
REMARK  168  A    between atoms: _423  and  _426
REMARK  169  A    between atoms: _426  and  _427
REMARK  170  A    between atoms: _432  and  _433
REMARK  171  A    between atoms: _435  and  _437
REMARK  172  A    between atoms: _437  and  _438
REMARK  173  A    between atoms: _437  and  _440
REMARK  174  A    between atoms: _440  and  _441
REMARK  175  A    between atoms: _441  and  _442
REMARK  176  A    between atoms: _442  and  _443
REMARK  177  A    between atoms: _443  and  _444
REMARK  178  A    between atoms: _448  and  _450
REMARK  179  A    between atoms: _450  and  _451
REMARK  180  A    between atoms: _450  and  _453
REMARK  181  A    between atoms: _453  and  _454
REMARK  182  A    between atoms: _456  and  _458
REMARK  183  A    between atoms: _458  and  _459
REMARK  184  A    between atoms: _458  and  _461
REMARK  185  A    between atoms: _461  and  _462
REMARK  186  A    between atoms: _465  and  _467
REMARK  187  A    between atoms: _467  and  _468
REMARK  188  A    between atoms: _467  and  _470
REMARK  189  A    between atoms: _470  and  _471
REMARK  190  A    between atoms: _471  and  _472
REMARK  191  A    between atoms: _475  and  _477
REMARK  192  A    between atoms: _477  and  _478
REMARK  193  A    between atoms: _481  and  _483
REMARK  194  A    between atoms: _483  and  _484
REMARK  195  A    between atoms: _483  and  _486
REMARK  196  A    between atoms: _486  and  _487
REMARK  197  A    between atoms: _489  and  _491
REMARK  198  A    between atoms: _491  and  _492
REMARK  199  A    between atoms: _494  and  _496
REMARK  200  A    between atoms: _496  and  _497
REMARK  201  A    between atoms: _496  and  _499
REMARK  202  A    between atoms: _499  and  _500
REMARK  203  A    between atoms: _503  and  _505
REMARK  204  A    between atoms: _505  and  _506
REMARK  205  A    between atoms: _508  and  _510
REMARK  206  A    between atoms: _510  and  _511
REMARK  207  A    between atoms: _510  and  _513
REMARK  208  A    between atoms: _513  and  _514
REMARK  209  A    between atoms: _519  and  _521
REMARK  210  A    between atoms: _521  and  _522
REMARK  211  A    between atoms: _521  and  _524
REMARK  212  A    between atoms: _524  and  _525
REMARK  213  A    between atoms: _525  and  _526
REMARK  214  A    between atoms: _533  and  _534
REMARK  215  A    between atoms: _534  and  _550
REMARK  216  A    between atoms: _535  and  _537
REMARK  217  A    between atoms: _537  and  _538
REMARK  218  A    between atoms: _538  and  _539
REMARK  219  A    between atoms: _543  and  _545
REMARK  220  A    between atoms: _545  and  _546
REMARK  221  A    between atoms: _545  and  _553
REMARK  222  A    between atoms: _546  and  _547
REMARK  223  A    between atoms: _547  and  _548
REMARK  224  A    between atoms: _548  and  _549
REMARK  225  A    between atoms: _549  and  _550
REMARK  226  A    between atoms: _555  and  _557
REMARK  227  A    between atoms: _557  and  _558
REMARK  228  A    between atoms: _557  and  _560
REMARK  229  A    between atoms: _560  and  _561
REMARK  230  A    between atoms: _564  and  _566
REMARK  231  A    between atoms: _566  and  _567
REMARK  232  A    between atoms: _569  and  _571
REMARK  233  A    between atoms: _571  and  _572
REMARK  234  A    between atoms: _575  and  _577
REMARK  235  A    between atoms: _577  and  _578
REMARK  236  A    between atoms: _577  and  _580
REMARK  237  A    between atoms: _580  and  _581
REMARK  238  A    between atoms: _586  and  _587
REMARK                            x       y       z     vdW  Elec       q    Type
REMARK                         _______ _______ _______ _____ _____    ______ ____
ROOT
ATOM      1  O   HOH     1      31.372  24.004  33.662  0.00  0.00    +0.000 OA
ENDROOT
TORSDOF 0
REMARK  Name = ../refined-set-2016/3l7b/3l7b_pocket.pdb
REMARK  238 active torsions:
REMARK  status: ('A' for Active; 'I' for Inactive)
REMARK    1  A    between atoms: _1  and  _3
REMARK    2  A    between atoms: _3  and  _4
REMARK    3  A    between atoms: _3  and  _6
REMARK    4  A    between atoms: _6  and  _7
REMARK    5  A    between atoms: _12  and  _13
REMARK    6  A    between atoms: _15  and  _17
REMARK    7  A    between atoms: _17  and  _18
REMARK    8  A    between atoms: _17  and  _20
REMARK    9  A    between atoms: _20  and  _21
REMARK   10  A    between atoms: _21  and  _22
REMARK   11  A    between atoms: _25  and  _27
REMARK   12  A    between atoms: _27  and  _28
REMARK   13  A    between atoms: _27  and  _30
REMARK   14  A    between atoms: _30  and  _31
REMARK   15  A    between atoms: _36  and  _37
REMARK   16  A    between atoms: _39  and  _41
REMARK   17  A    between atoms: _41  and  _42
REMARK   18  A    between atoms: _41  and  _44
REMARK   19  A    between atoms: _44  and  _45
REMARK   20  A    between atoms: _50  and  _52
REMARK   21  A    between atoms: _52  and  _53
REMARK   22  A    between atoms: _55  and  _57
REMARK   23  A    between atoms: _57  and  _58
REMARK   24  A    between atoms: _60  and  _62
REMARK   25  A    between atoms: _62  and  _63
REMARK   26  A    between atoms: _62  and  _65
REMARK   27  A    between atoms: _65  and  _66
REMARK   28  A    between atoms: _69  and  _71
REMARK   29  A    between atoms: _71  and  _72
REMARK   30  A    between atoms: _74  and  _76
REMARK   31  A    between atoms: _76  and  _77
REMARK   32  A    between atoms: _76  and  _79
REMARK   33  A    between atoms: _80  and  _81
REMARK   34  A    between atoms: _81  and  _82
REMARK   35  A    between atoms: _91  and  _93
REMARK   36  A    between atoms: _93  and  _94
REMARK   37  A    between atoms: _93  and  _96
REMARK   38  A    between atoms: _96  and  _97
REMARK   39  A    between atoms: _100  and  _102
REMARK   40  A    between atoms: _102  and  _103
REMARK   41  A    between atoms: _106  and  _108
REMARK   42  A    between atoms: _108  and  _109
REMARK   43  A    between atoms: _108  and  _111
REMARK   44  A    between atoms: _111  and  _112
REMARK   45  A    between atoms: _118  and  _120
REMARK   46  A    between atoms: _120  and  _121
REMARK   47  A    between atoms: _120  and  _123
REMARK   48  A    between atoms: _123  and  _124
REMARK   49  A    between atoms: _129  and  _131
REMARK   50  A    between atoms: _131  and  _132
REMARK   51  A    between atoms: _131  and  _134
REMARK   52  A    between atoms: _134  and  _135
REMARK   53  A    between atoms: _138  and  _140
REMARK   54  A    between atoms: _140  and  _141
REMARK   55  A    between atoms: _140  and  _143
REMARK   56  A    between atoms: _143  and  _144
REMARK   57  A    between atoms: _149  and  _151
REMARK   58  A    between atoms: _151  and  _152
REMARK   59  A    between atoms: _151  and  _154
REMARK   60  A    between atoms: _154  and  _155
REMARK   61  A    between atoms: _161  and  _163
REMARK   62  A    between atoms: _163  and  _164
REMARK   63  A    between atoms: _163  and  _166
REMARK   64  A    between atoms: _166  and  _167
REMARK   65  A    between atoms: _173  and  _175
REMARK   66  A    between atoms: _175  and  _176
REMARK   67  A    between atoms: _175  and  _178
REMARK   68  A    between atoms: _178  and  _179
REMARK   69  A    between atoms: _179  and  _180
REMARK   70  A    between atoms: _180  and  _181
REMARK   71  A    between atoms: _190  and  _192
REMARK   72  A    between atoms: _192  and  _193
REMARK   73  A    between atoms: _192  and  _195
REMARK   74  A    between atoms: _195  and  _196
REMARK   75  A    between atoms: _201  and  _203
REMARK   76  A    between atoms: _203  and  _204
REMARK   77  A    between atoms: _203  and  _206
REMARK   78  A    between atoms: _206  and  _207
REMARK   79  A    between atoms: _210  and  _212
REMARK   80  A    between atoms: _212  and  _213
REMARK   81  A    between atoms: _212  and  _215
REMARK   82  A    between atoms: _215  and  _216
REMARK   83  A    between atoms: _219  and  _221
REMARK   84  A    between atoms: _221  and  _222
REMARK   85  A    between atoms: _221  and  _224
REMARK   86  A    between atoms: _224  and  _225
REMARK   87  A    between atoms: _230  and  _232
REMARK   88  A    between atoms: _232  and  _233
REMARK   89  A    between atoms: _232  and  _235
REMARK   90  A    between atoms: _235  and  _236
REMARK   91  A    between atoms: _239  and  _241
REMARK   92  A    between atoms: _241  and  _242
REMARK   93  A    between atoms: _241  and  _244
REMARK   94  A    between atoms: _244  and  _245
REMARK   95  A    between atoms: _250  and  _252
REMARK   96  A    between atoms: _252  and  _253
REMARK   97  A    between atoms: _252  and  _255
REMARK   98  A    between atoms: _255  and  _256
REMARK   99  A    between atoms: _261  and  _263
REMARK  100  A    between atoms: _263  and  _264
REMARK  101  A    between atoms: _263  and  _266
REMARK  102  A    between atoms: _266  and  _267
REMARK  103  A    between atoms: _270  and  _272
REMARK  104  A    between atoms: _272  and  _273
REMARK  105  A    between atoms: _272  and  _275
REMARK  106  A    between atoms: _278  and  _280
REMARK  107  A    between atoms: _280  and  _281
REMARK  108  A    between atoms: _280  and  _283
REMARK  109  A    between atoms: _283  and  _284
REMARK  110  A    between atoms: _287  and  _289
REMARK  111  A    between atoms: _289  and  _290
REMARK  112  A    between atoms: _293  and  _295
REMARK  113  A    between atoms: _295  and  _296
REMARK  114  A    between atoms: _295  and  _298
REMARK  115  A    between atoms: _298  and  _299
REMARK  116  A    between atoms: _302  and  _304
REMARK  117  A    between atoms: _304  and  _305
REMARK  118  A    between atoms: _304  and  _307
REMARK  119  A    between atoms: _307  and  _308
REMARK  120  A    between atoms: _308  and  _309
REMARK  121  A    between atoms: _312  and  _314
REMARK  122  A    between atoms: _314  and  _315
REMARK  123  A    between atoms: _314  and  _317
REMARK  124  A    between atoms: _317  and  _318
REMARK  125  A    between atoms: _323  and  _325
REMARK  126  A    between atoms: _325  and  _326
REMARK  127  A    between atoms: _328  and  _330
REMARK  128  A    between atoms: _330  and  _331
REMARK  129  A    between atoms: _330  and  _333
REMARK  130  A    between atoms: _336  and  _338
REMARK  131  A    between atoms: _338  and  _339
REMARK  132  A    between atoms: _342  and  _344
REMARK  133  A    between atoms: _344  and  _345
REMARK  134  A    between atoms: _344  and  _347
REMARK  135  A    between atoms: _347  and  _348
REMARK  136  A    between atoms: _353  and  _355
REMARK  137  A    between atoms: _355  and  _356
REMARK  138  A    between atoms: _355  and  _358
REMARK  139  A    between atoms: _358  and  _359
REMARK  140  A    between atoms: _359  and  _360
REMARK  141  A    between atoms: _360  and  _361
REMARK  142  A    between atoms: _361  and  _362
REMARK  143  A    between atoms: _366  and  _368
REMARK  144  A    between atoms: _368  and  _369
REMARK  145  A    between atoms: _368  and  _371
REMARK  146  A    between atoms: _371  and  _372
REMARK  147  A    between atoms: _377  and  _379
REMARK  148  A    between atoms: _379  and  _380
REMARK  149  A    between atoms: _382  and  _384
REMARK  150  A    between atoms: _384  and  _385
REMARK  151  A    between atoms: _384  and  _387
REMARK  152  A    between atoms: _387  and  _388
REMARK  153  A    between atoms: _391  and  _393
REMARK  154  A    between atoms: _393  and  _394
REMARK  155  A    between atoms: _393  and  _396
REMARK  156  A    between atoms: _396  and  _397
REMARK  157  A    between atoms: _397  and  _398
REMARK  158  A    between atoms: _398  and  _399
REMARK  159  A    between atoms: _399  and  _400
REMARK  160  A    between atoms: _404  and  _406
REMARK  161  A    between atoms: _406  and  _407
REMARK  162  A    between atoms: _406  and  _409
REMARK  163  A    between atoms: _409  and  _410
REMARK  164  A    between atoms: _410  and  _411
REMARK  165  A    between atoms: _411  and  _412
REMARK  166  A    between atoms: _421  and  _423
REMARK  167  A    between atoms: _423  and  _424
REMARK  168  A    between atoms: _423  and  _426
REMARK  169  A    between atoms: _426  and  _427
REMARK  170  A    between atoms: _432  and  _433
REMARK  171  A    between atoms: _435  and  _437
REMARK  172  A    between atoms: _437  and  _438
REMARK  173  A    between atoms: _437  and  _440
REMARK  174  A    between atoms: _440  and  _441
REMARK  175  A    between atoms: _441  and  _442
REMARK  176  A    between atoms: _442  and  _443
REMARK  177  A    between atoms: _443  and  _444
REMARK  178  A    between atoms: _448  and  _450
REMARK  179  A    between atoms: _450  and  _451
REMARK  180  A    between atoms: _450  and  _453
REMARK  181  A    between atoms: _453  and  _454
REMARK  182  A    between atoms: _456  and  _458
REMARK  183  A    between atoms: _458  and  _459
REMARK  184  A    between atoms: _458  and  _461
REMARK  185  A    between atoms: _461  and  _462
REMARK  186  A    between atoms: _465  and  _467
REMARK  187  A    between atoms: _467  and  _468
REMARK  188  A    between atoms: _467  and  _470
REMARK  189  A    between atoms: _470  and  _471
REMARK  190  A    between atoms: _471  and  _472
REMARK  191  A    between atoms: _475  and  _477
REMARK  192  A    between atoms: _477  and  _478
REMARK  193  A    between atoms: _481  and  _483
REMARK  194  A    between atoms: _483  and  _484
REMARK  195  A    between atoms: _483  and  _486
REMARK  196  A    between atoms: _486  and  _487
REMARK  197  A    between atoms: _489  and  _491
REMARK  198  A    between atoms: _491  and  _492
REMARK  199  A    between atoms: _494  and  _496
REMARK  200  A    between atoms: _496  and  _497
REMARK  201  A    between atoms: _496  and  _499
REMARK  202  A    between atoms: _499  and  _500
REMARK  203  A    between atoms: _503  and  _505
REMARK  204  A    between atoms: _505  and  _506
REMARK  205  A    between atoms: _508  and  _510
REMARK  206  A    between atoms: _510  and  _511
REMARK  207  A    between atoms: _510  and  _513
REMARK  208  A    between atoms: _513  and  _514
REMARK  209  A    between atoms: _519  and  _521
REMARK  210  A    between atoms: _521  and  _522
REMARK  211  A    between atoms: _521  and  _524
REMARK  212  A    between atoms: _524  and  _525
REMARK  213  A    between atoms: _525  and  _526
REMARK  214  A    between atoms: _533  and  _534
REMARK  215  A    between atoms: _534  and  _550
REMARK  216  A    between atoms: _535  and  _537
REMARK  217  A    between atoms: _537  and  _538
REMARK  218  A    between atoms: _538  and  _539
REMARK  219  A    between atoms: _543  and  _545
REMARK  220  A    between atoms: _545  and  _546
REMARK  221  A    between atoms: _545  and  _553
REMARK  222  A    between atoms: _546  and  _547
REMARK  223  A    between atoms: _547  and  _548
REMARK  224  A    between atoms: _548  and  _549
REMARK  225  A    between atoms: _549  and  _550
REMARK  226  A    between atoms: _555  and  _557
REMARK  227  A    between atoms: _557  and  _558
REMARK  228  A    between atoms: _557  and  _560
REMARK  229  A    between atoms: _560  and  _561
REMARK  230  A    between atoms: _564  and  _566
REMARK  231  A    between atoms: _566  and  _567
REMARK  232  A    between atoms: _569  and  _571
REMARK  233  A    between atoms: _571  and  _572
REMARK  234  A    between atoms: _575  and  _577
REMARK  235  A    between atoms: _577  and  _578
REMARK  236  A    between atoms: _577  and  _580
REMARK  237  A    between atoms: _580  and  _581
REMARK  238  A    between atoms: _586  and  _587
REMARK                            x       y       z     vdW  Elec       q    Type
REMARK                         _______ _______ _______ _____ _____    ______ ____
ROOT
ATOM      1  O   HOH     1      38.960  23.792  22.390  0.00  0.00    +0.000 OA
ENDROOT
TORSDOF 0
REMARK  Name = ../refined-set-2016/3l7b/3l7b_pocket.pdb
REMARK  238 active torsions:
REMARK  status: ('A' for Active; 'I' for Inactive)
REMARK    1  A    between atoms: _1  and  _3
REMARK    2  A    between atoms: _3  and  _4
REMARK    3  A    between atoms: _3  and  _6
REMARK    4  A    between atoms: _6  and  _7
REMARK    5  A    between atoms: _12  and  _13
REMARK    6  A    between atoms: _15  and  _17
REMARK    7  A    between atoms: _17  and  _18
REMARK    8  A    between atoms: _17  and  _20
REMARK    9  A    between atoms: _20  and  _21
REMARK   10  A    between atoms: _21  and  _22
REMARK   11  A    between atoms: _25  and  _27
REMARK   12  A    between atoms: _27  and  _28
REMARK   13  A    between atoms: _27  and  _30
REMARK   14  A    between atoms: _30  and  _31
REMARK   15  A    between atoms: _36  and  _37
REMARK   16  A    between atoms: _39  and  _41
REMARK   17  A    between atoms: _41  and  _42
REMARK   18  A    between atoms: _41  and  _44
REMARK   19  A    between atoms: _44  and  _45
REMARK   20  A    between atoms: _50  and  _52
REMARK   21  A    between atoms: _52  and  _53
REMARK   22  A    between atoms: _55  and  _57
REMARK   23  A    between atoms: _57  and  _58
REMARK   24  A    between atoms: _60  and  _62
REMARK   25  A    between atoms: _62  and  _63
REMARK   26  A    between atoms: _62  and  _65
REMARK   27  A    between atoms: _65  and  _66
REMARK   28  A    between atoms: _69  and  _71
REMARK   29  A    between atoms: _71  and  _72
REMARK   30  A    between atoms: _74  and  _76
REMARK   31  A    between atoms: _76  and  _77
REMARK   32  A    between atoms: _76  and  _79
REMARK   33  A    between atoms: _80  and  _81
REMARK   34  A    between atoms: _81  and  _82
REMARK   35  A    between atoms: _91  and  _93
REMARK   36  A    between atoms: _93  and  _94
REMARK   37  A    between atoms: _93  and  _96
REMARK   38  A    between atoms: _96  and  _97
REMARK   39  A    between atoms: _100  and  _102
REMARK   40  A    between atoms: _102  and  _103
REMARK   41  A    between atoms: _106  and  _108
REMARK   42  A    between atoms: _108  and  _109
REMARK   43  A    between atoms: _108  and  _111
REMARK   44  A    between atoms: _111  and  _112
REMARK   45  A    between atoms: _118  and  _120
REMARK   46  A    between atoms: _120  and  _121
REMARK   47  A    between atoms: _120  and  _123
REMARK   48  A    between atoms: _123  and  _124
REMARK   49  A    between atoms: _129  and  _131
REMARK   50  A    between atoms: _131  and  _132
REMARK   51  A    between atoms: _131  and  _134
REMARK   52  A    between atoms: _134  and  _135
REMARK   53  A    between atoms: _138  and  _140
REMARK   54  A    between atoms: _140  and  _141
REMARK   55  A    between atoms: _140  and  _143
REMARK   56  A    between atoms: _143  and  _144
REMARK   57  A    between atoms: _149  and  _151
REMARK   58  A    between atoms: _151  and  _152
REMARK   59  A    between atoms: _151  and  _154
REMARK   60  A    between atoms: _154  and  _155
REMARK   61  A    between atoms: _161  and  _163
REMARK   62  A    between atoms: _163  and  _164
REMARK   63  A    between atoms: _163  and  _166
REMARK   64  A    between atoms: _166  and  _167
REMARK   65  A    between atoms: _173  and  _175
REMARK   66  A    between atoms: _175  and  _176
REMARK   67  A    between atoms: _175  and  _178
REMARK   68  A    between atoms: _178  and  _179
REMARK   69  A    between atoms: _179  and  _180
REMARK   70  A    between atoms: _180  and  _181
REMARK   71  A    between atoms: _190  and  _192
REMARK   72  A    between atoms: _192  and  _193
REMARK   73  A    between atoms: _192  and  _195
REMARK   74  A    between atoms: _195  and  _196
REMARK   75  A    between atoms: _201  and  _203
REMARK   76  A    between atoms: _203  and  _204
REMARK   77  A    between atoms: _203  and  _206
REMARK   78  A    between atoms: _206  and  _207
REMARK   79  A    between atoms: _210  and  _212
REMARK   80  A    between atoms: _212  and  _213
REMARK   81  A    between atoms: _212  and  _215
REMARK   82  A    between atoms: _215  and  _216
REMARK   83  A    between atoms: _219  and  _221
REMARK   84  A    between atoms: _221  and  _222
REMARK   85  A    between atoms: _221  and  _224
REMARK   86  A    between atoms: _224  and  _225
REMARK   87  A    between atoms: _230  and  _232
REMARK   88  A    between atoms: _232  and  _233
REMARK   89  A    between atoms: _232  and  _235
REMARK   90  A    between atoms: _235  and  _236
REMARK   91  A    between atoms: _239  and  _241
REMARK   92  A    between atoms: _241  and  _242
REMARK   93  A    between atoms: _241  and  _244
REMARK   94  A    between atoms: _244  and  _245
REMARK   95  A    between atoms: _250  and  _252
REMARK   96  A    between atoms: _252  and  _253
REMARK   97  A    between atoms: _252  and  _255
REMARK   98  A    between atoms: _255  and  _256
REMARK   99  A    between atoms: _261  and  _263
REMARK  100  A    between atoms: _263  and  _264
REMARK  101  A    between atoms: _263  and  _266
REMARK  102  A    between atoms: _266  and  _267
REMARK  103  A    between atoms: _270  and  _272
REMARK  104  A    between atoms: _272  and  _273
REMARK  105  A    between atoms: _272  and  _275
REMARK  106  A    between atoms: _278  and  _280
REMARK  107  A    between atoms: _280  and  _281
REMARK  108  A    between atoms: _280  and  _283
REMARK  109  A    between atoms: _283  and  _284
REMARK  110  A    between atoms: _287  and  _289
REMARK  111  A    between atoms: _289  and  _290
REMARK  112  A    between atoms: _293  and  _295
REMARK  113  A    between atoms: _295  and  _296
REMARK  114  A    between atoms: _295  and  _298
REMARK  115  A    between atoms: _298  and  _299
REMARK  116  A    between atoms: _302  and  _304
REMARK  117  A    between atoms: _304  and  _305
REMARK  118  A    between atoms: _304  and  _307
REMARK  119  A    between atoms: _307  and  _308
REMARK  120  A    between atoms: _308  and  _309
REMARK  121  A    between atoms: _312  and  _314
REMARK  122  A    between atoms: _314  and  _315
REMARK  123  A    between atoms: _314  and  _317
REMARK  124  A    between atoms: _317  and  _318
REMARK  125  A    between atoms: _323  and  _325
REMARK  126  A    between atoms: _325  and  _326
REMARK  127  A    between atoms: _328  and  _330
REMARK  128  A    between atoms: _330  and  _331
REMARK  129  A    between atoms: _330  and  _333
REMARK  130  A    between atoms: _336  and  _338
REMARK  131  A    between atoms: _338  and  _339
REMARK  132  A    between atoms: _342  and  _344
REMARK  133  A    between atoms: _344  and  _345
REMARK  134  A    between atoms: _344  and  _347
REMARK  135  A    between atoms: _347  and  _348
REMARK  136  A    between atoms: _353  and  _355
REMARK  137  A    between atoms: _355  and  _356
REMARK  138  A    between atoms: _355  and  _358
REMARK  139  A    between atoms: _358  and  _359
REMARK  140  A    between atoms: _359  and  _360
REMARK  141  A    between atoms: _360  and  _361
REMARK  142  A    between atoms: _361  and  _362
REMARK  143  A    between atoms: _366  and  _368
REMARK  144  A    between atoms: _368  and  _369
REMARK  145  A    between atoms: _368  and  _371
REMARK  146  A    between atoms: _371  and  _372
REMARK  147  A    between atoms: _377  and  _379
REMARK  148  A    between atoms: _379  and  _380
REMARK  149  A    between atoms: _382  and  _384
REMARK  150  A    between atoms: _384  and  _385
REMARK  151  A    between atoms: _384  and  _387
REMARK  152  A    between atoms: _387  and  _388
REMARK  153  A    between atoms: _391  and  _393
REMARK  154  A    between atoms: _393  and  _394
REMARK  155  A    between atoms: _393  and  _396
REMARK  156  A    between atoms: _396  and  _397
REMARK  157  A    between atoms: _397  and  _398
REMARK  158  A    between atoms: _398  and  _399
REMARK  159  A    between atoms: _399  and  _400
REMARK  160  A    between atoms: _404  and  _406
REMARK  161  A    between atoms: _406  and  _407
REMARK  162  A    between atoms: _406  and  _409
REMARK  163  A    between atoms: _409  and  _410
REMARK  164  A    between atoms: _410  and  _411
REMARK  165  A    between atoms: _411  and  _412
REMARK  166  A    between atoms: _421  and  _423
REMARK  167  A    between atoms: _423  and  _424
REMARK  168  A    between atoms: _423  and  _426
REMARK  169  A    between atoms: _426  and  _427
REMARK  170  A    between atoms: _432  and  _433
REMARK  171  A    between atoms: _435  and  _437
REMARK  172  A    between atoms: _437  and  _438
REMARK  173  A    between atoms: _437  and  _440
REMARK  174  A    between atoms: _440  and  _441
REMARK  175  A    between atoms: _441  and  _442
REMARK  176  A    between atoms: _442  and  _443
REMARK  177  A    between atoms: _443  and  _444
REMARK  178  A    between atoms: _448  and  _450
REMARK  179  A    between atoms: _450  and  _451
REMARK  180  A    between atoms: _450  and  _453
REMARK  181  A    between atoms: _453  and  _454
REMARK  182  A    between atoms: _456  and  _458
REMARK  183  A    between atoms: _458  and  _459
REMARK  184  A    between atoms: _458  and  _461
REMARK  185  A    between atoms: _461  and  _462
REMARK  186  A    between atoms: _465  and  _467
REMARK  187  A    between atoms: _467  and  _468
REMARK  188  A    between atoms: _467  and  _470
REMARK  189  A    between atoms: _470  and  _471
REMARK  190  A    between atoms: _471  and  _472
REMARK  191  A    between atoms: _475  and  _477
REMARK  192  A    between atoms: _477  and  _478
REMARK  193  A    between atoms: _481  and  _483
REMARK  194  A    between atoms: _483  and  _484
REMARK  195  A    between atoms: _483  and  _486
REMARK  196  A    between atoms: _486  and  _487
REMARK  197  A    between atoms: _489  and  _491
REMARK  198  A    between atoms: _491  and  _492
REMARK  199  A    between atoms: _494  and  _496
REMARK  200  A    between atoms: _496  and  _497
REMARK  201  A    between atoms: _496  and  _499
REMARK  202  A    between atoms: _499  and  _500
REMARK  203  A    between atoms: _503  and  _505
REMARK  204  A    between atoms: _505  and  _506
REMARK  205  A    between atoms: _508  and  _510
REMARK  206  A    between atoms: _510  and  _511
REMARK  207  A    between atoms: _510  and  _513
REMARK  208  A    between atoms: _513  and  _514
REMARK  209  A    between atoms: _519  and  _521
REMARK  210  A    between atoms: _521  and  _522
REMARK  211  A    between atoms: _521  and  _524
REMARK  212  A    between atoms: _524  and  _525
REMARK  213  A    between atoms: _525  and  _526
REMARK  214  A    between atoms: _533  and  _534
REMARK  215  A    between atoms: _534  and  _550
REMARK  216  A    between atoms: _535  and  _537
REMARK  217  A    between atoms: _537  and  _538
REMARK  218  A    between atoms: _538  and  _539
REMARK  219  A    between atoms: _543  and  _545
REMARK  220  A    between atoms: _545  and  _546
REMARK  221  A    between atoms: _545  and  _553
REMARK  222  A    between atoms: _546  and  _547
REMARK  223  A    between atoms: _547  and  _548
REMARK  224  A    between atoms: _548  and  _549
REMARK  225  A    between atoms: _549  and  _550
REMARK  226  A    between atoms: _555  and  _557
REMARK  227  A    between atoms: _557  and  _558
REMARK  228  A    between atoms: _557  and  _560
REMARK  229  A    between atoms: _560  and  _561
REMARK  230  A    between atoms: _564  and  _566
REMARK  231  A    between atoms: _566  and  _567
REMARK  232  A    between atoms: _569  and  _571
REMARK  233  A    between atoms: _571  and  _572
REMARK  234  A    between atoms: _575  and  _577
REMARK  235  A    between atoms: _577  and  _578
REMARK  236  A    between atoms: _577  and  _580
REMARK  237  A    between atoms: _580  and  _581
REMARK  238  A    between atoms: _586  and  _587
REMARK                            x       y       z     vdW  Elec       q    Type
REMARK                         _______ _______ _______ _____ _____    ______ ____
ROOT
ATOM      1  O   HOH     1      41.440  26.458  37.825  0.00  0.00    +0.000 OA
ENDROOT
TORSDOF 0
REMARK  Name = ../refined-set-2016/3l7b/3l7b_pocket.pdb
REMARK  238 active torsions:
REMARK  status: ('A' for Active; 'I' for Inactive)
REMARK    1  A    between atoms: _1  and  _3
REMARK    2  A    between atoms: _3  and  _4
REMARK    3  A    between atoms: _3  and  _6
REMARK    4  A    between atoms: _6  and  _7
REMARK    5  A    between atoms: _12  and  _13
REMARK    6  A    between atoms: _15  and  _17
REMARK    7  A    between atoms: _17  and  _18
REMARK    8  A    between atoms: _17  and  _20
REMARK    9  A    between atoms: _20  and  _21
REMARK   10  A    between atoms: _21  and  _22
REMARK   11  A    between atoms: _25  and  _27
REMARK   12  A    between atoms: _27  and  _28
REMARK   13  A    between atoms: _27  and  _30
REMARK   14  A    between atoms: _30  and  _31
REMARK   15  A    between atoms: _36  and  _37
REMARK   16  A    between atoms: _39  and  _41
REMARK   17  A    between atoms: _41  and  _42
REMARK   18  A    between atoms: _41  and  _44
REMARK   19  A    between atoms: _44  and  _45
REMARK   20  A    between atoms: _50  and  _52
REMARK   21  A    between atoms: _52  and  _53
REMARK   22  A    between atoms: _55  and  _57
REMARK   23  A    between atoms: _57  and  _58
REMARK   24  A    between atoms: _60  and  _62
REMARK   25  A    between atoms: _62  and  _63
REMARK   26  A    between atoms: _62  and  _65
REMARK   27  A    between atoms: _65  and  _66
REMARK   28  A    between atoms: _69  and  _71
REMARK   29  A    between atoms: _71  and  _72
REMARK   30  A    between atoms: _74  and  _76
REMARK   31  A    between atoms: _76  and  _77
REMARK   32  A    between atoms: _76  and  _79
REMARK   33  A    between atoms: _80  and  _81
REMARK   34  A    between atoms: _81  and  _82
REMARK   35  A    between atoms: _91  and  _93
REMARK   36  A    between atoms: _93  and  _94
REMARK   37  A    between atoms: _93  and  _96
REMARK   38  A    between atoms: _96  and  _97
REMARK   39  A    between atoms: _100  and  _102
REMARK   40  A    between atoms: _102  and  _103
REMARK   41  A    between atoms: _106  and  _108
REMARK   42  A    between atoms: _108  and  _109
REMARK   43  A    between atoms: _108  and  _111
REMARK   44  A    between atoms: _111  and  _112
REMARK   45  A    between atoms: _118  and  _120
REMARK   46  A    between atoms: _120  and  _121
REMARK   47  A    between atoms: _120  and  _123
REMARK   48  A    between atoms: _123  and  _124
REMARK   49  A    between atoms: _129  and  _131
REMARK   50  A    between atoms: _131  and  _132
REMARK   51  A    between atoms: _131  and  _134
REMARK   52  A    between atoms: _134  and  _135
REMARK   53  A    between atoms: _138  and  _140
REMARK   54  A    between atoms: _140  and  _141
REMARK   55  A    between atoms: _140  and  _143
REMARK   56  A    between atoms: _143  and  _144
REMARK   57  A    between atoms: _149  and  _151
REMARK   58  A    between atoms: _151  and  _152
REMARK   59  A    between atoms: _151  and  _154
REMARK   60  A    between atoms: _154  and  _155
REMARK   61  A    between atoms: _161  and  _163
REMARK   62  A    between atoms: _163  and  _164
REMARK   63  A    between atoms: _163  and  _166
REMARK   64  A    between atoms: _166  and  _167
REMARK   65  A    between atoms: _173  and  _175
REMARK   66  A    between atoms: _175  and  _176
REMARK   67  A    between atoms: _175  and  _178
REMARK   68  A    between atoms: _178  and  _179
REMARK   69  A    between atoms: _179  and  _180
REMARK   70  A    between atoms: _180  and  _181
REMARK   71  A    between atoms: _190  and  _192
REMARK   72  A    between atoms: _192  and  _193
REMARK   73  A    between atoms: _192  and  _195
REMARK   74  A    between atoms: _195  and  _196
REMARK   75  A    between atoms: _201  and  _203
REMARK   76  A    between atoms: _203  and  _204
REMARK   77  A    between atoms: _203  and  _206
REMARK   78  A    between atoms: _206  and  _207
REMARK   79  A    between atoms: _210  and  _212
REMARK   80  A    between atoms: _212  and  _213
REMARK   81  A    between atoms: _212  and  _215
REMARK   82  A    between atoms: _215  and  _216
REMARK   83  A    between atoms: _219  and  _221
REMARK   84  A    between atoms: _221  and  _222
REMARK   85  A    between atoms: _221  and  _224
REMARK   86  A    between atoms: _224  and  _225
REMARK   87  A    between atoms: _230  and  _232
REMARK   88  A    between atoms: _232  and  _233
REMARK   89  A    between atoms: _232  and  _235
REMARK   90  A    between atoms: _235  and  _236
REMARK   91  A    between atoms: _239  and  _241
REMARK   92  A    between atoms: _241  and  _242
REMARK   93  A    between atoms: _241  and  _244
REMARK   94  A    between atoms: _244  and  _245
REMARK   95  A    between atoms: _250  and  _252
REMARK   96  A    between atoms: _252  and  _253
REMARK   97  A    between atoms: _252  and  _255
REMARK   98  A    between atoms: _255  and  _256
REMARK   99  A    between atoms: _261  and  _263
REMARK  100  A    between atoms: _263  and  _264
REMARK  101  A    between atoms: _263  and  _266
REMARK  102  A    between atoms: _266  and  _267
REMARK  103  A    between atoms: _270  and  _272
REMARK  104  A    between atoms: _272  and  _273
REMARK  105  A    between atoms: _272  and  _275
REMARK  106  A    between atoms: _278  and  _280
REMARK  107  A    between atoms: _280  and  _281
REMARK  108  A    between atoms: _280  and  _283
REMARK  109  A    between atoms: _283  and  _284
REMARK  110  A    between atoms: _287  and  _289
REMARK  111  A    between atoms: _289  and  _290
REMARK  112  A    between atoms: _293  and  _295
REMARK  113  A    between atoms: _295  and  _296
REMARK  114  A    between atoms: _295  and  _298
REMARK  115  A    between atoms: _298  and  _299
REMARK  116  A    between atoms: _302  and  _304
REMARK  117  A    between atoms: _304  and  _305
REMARK  118  A    between atoms: _304  and  _307
REMARK  119  A    between atoms: _307  and  _308
REMARK  120  A    between atoms: _308  and  _309
REMARK  121  A    between atoms: _312  and  _314
REMARK  122  A    between atoms: _314  and  _315
REMARK  123  A    between atoms: _314  and  _317
REMARK  124  A    between atoms: _317  and  _318
REMARK  125  A    between atoms: _323  and  _325
REMARK  126  A    between atoms: _325  and  _326
REMARK  127  A    between atoms: _328  and  _330
REMARK  128  A    between atoms: _330  and  _331
REMARK  129  A    between atoms: _330  and  _333
REMARK  130  A    between atoms: _336  and  _338
REMARK  131  A    between atoms: _338  and  _339
REMARK  132  A    between atoms: _342  and  _344
REMARK  133  A    between atoms: _344  and  _345
REMARK  134  A    between atoms: _344  and  _347
REMARK  135  A    between atoms: _347  and  _348
REMARK  136  A    between atoms: _353  and  _355
REMARK  137  A    between atoms: _355  and  _356
REMARK  138  A    between atoms: _355  and  _358
REMARK  139  A    between atoms: _358  and  _359
REMARK  140  A    between atoms: _359  and  _360
REMARK  141  A    between atoms: _360  and  _361
REMARK  142  A    between atoms: _361  and  _362
REMARK  143  A    between atoms: _366  and  _368
REMARK  144  A    between atoms: _368  and  _369
REMARK  145  A    between atoms: _368  and  _371
REMARK  146  A    between atoms: _371  and  _372
REMARK  147  A    between atoms: _377  and  _379
REMARK  148  A    between atoms: _379  and  _380
REMARK  149  A    between atoms: _382  and  _384
REMARK  150  A    between atoms: _384  and  _385
REMARK  151  A    between atoms: _384  and  _387
REMARK  152  A    between atoms: _387  and  _388
REMARK  153  A    between atoms: _391  and  _393
REMARK  154  A    between atoms: _393  and  _394
REMARK  155  A    between atoms: _393  and  _396
REMARK  156  A    between atoms: _396  and  _397
REMARK  157  A    between atoms: _397  and  _398
REMARK  158  A    between atoms: _398  and  _399
REMARK  159  A    between atoms: _399  and  _400
REMARK  160  A    between atoms: _404  and  _406
REMARK  161  A    between atoms: _406  and  _407
REMARK  162  A    between atoms: _406  and  _409
REMARK  163  A    between atoms: _409  and  _410
REMARK  164  A    between atoms: _410  and  _411
REMARK  165  A    between atoms: _411  and  _412
REMARK  166  A    between atoms: _421  and  _423
REMARK  167  A    between atoms: _423  and  _424
REMARK  168  A    between atoms: _423  and  _426
REMARK  169  A    between atoms: _426  and  _427
REMARK  170  A    between atoms: _432  and  _433
REMARK  171  A    between atoms: _435  and  _437
REMARK  172  A    between atoms: _437  and  _438
REMARK  173  A    between atoms: _437  and  _440
REMARK  174  A    between atoms: _440  and  _441
REMARK  175  A    between atoms: _441  and  _442
REMARK  176  A    between atoms: _442  and  _443
REMARK  177  A    between atoms: _443  and  _444
REMARK  178  A    between atoms: _448  and  _450
REMARK  179  A    between atoms: _450  and  _451
REMARK  180  A    between atoms: _450  and  _453
REMARK  181  A    between atoms: _453  and  _454
REMARK  182  A    between atoms: _456  and  _458
REMARK  183  A    between atoms: _458  and  _459
REMARK  184  A    between atoms: _458  and  _461
REMARK  185  A    between atoms: _461  and  _462
REMARK  186  A    between atoms: _465  and  _467
REMARK  187  A    between atoms: _467  and  _468
REMARK  188  A    between atoms: _467  and  _470
REMARK  189  A    between atoms: _470  and  _471
REMARK  190  A    between atoms: _471  and  _472
REMARK  191  A    between atoms: _475  and  _477
REMARK  192  A    between atoms: _477  and  _478
REMARK  193  A    between atoms: _481  and  _483
REMARK  194  A    between atoms: _483  and  _484
REMARK  195  A    between atoms: _483  and  _486
REMARK  196  A    between atoms: _486  and  _487
REMARK  197  A    between atoms: _489  and  _491
REMARK  198  A    between atoms: _491  and  _492
REMARK  199  A    between atoms: _494  and  _496
REMARK  200  A    between atoms: _496  and  _497
REMARK  201  A    between atoms: _496  and  _499
REMARK  202  A    between atoms: _499  and  _500
REMARK  203  A    between atoms: _503  and  _505
REMARK  204  A    between atoms: _505  and  _506
REMARK  205  A    between atoms: _508  and  _510
REMARK  206  A    between atoms: _510  and  _511
REMARK  207  A    between atoms: _510  and  _513
REMARK  208  A    between atoms: _513  and  _514
REMARK  209  A    between atoms: _519  and  _521
REMARK  210  A    between atoms: _521  and  _522
REMARK  211  A    between atoms: _521  and  _524
REMARK  212  A    between atoms: _524  and  _525
REMARK  213  A    between atoms: _525  and  _526
REMARK  214  A    between atoms: _533  and  _534
REMARK  215  A    between atoms: _534  and  _550
REMARK  216  A    between atoms: _535  and  _537
REMARK  217  A    between atoms: _537  and  _538
REMARK  218  A    between atoms: _538  and  _539
REMARK  219  A    between atoms: _543  and  _545
REMARK  220  A    between atoms: _545  and  _546
REMARK  221  A    between atoms: _545  and  _553
REMARK  222  A    between atoms: _546  and  _547
REMARK  223  A    between atoms: _547  and  _548
REMARK  224  A    between atoms: _548  and  _549
REMARK  225  A    between atoms: _549  and  _550
REMARK  226  A    between atoms: _555  and  _557
REMARK  227  A    between atoms: _557  and  _558
REMARK  228  A    between atoms: _557  and  _560
REMARK  229  A    between atoms: _560  and  _561
REMARK  230  A    between atoms: _564  and  _566
REMARK  231  A    between atoms: _566  and  _567
REMARK  232  A    between atoms: _569  and  _571
REMARK  233  A    between atoms: _571  and  _572
REMARK  234  A    between atoms: _575  and  _577
REMARK  235  A    between atoms: _577  and  _578
REMARK  236  A    between atoms: _577  and  _580
REMARK  237  A    between atoms: _580  and  _581
REMARK  238  A    between atoms: _586  and  _587
REMARK                            x       y       z     vdW  Elec       q    Type
REMARK                         _______ _______ _______ _____ _____    ______ ____
ROOT
ATOM      1  O   HOH     1      36.953  22.353  18.129  0.00  0.00    +0.000 OA
ENDROOT
TORSDOF 0
REMARK  Name = ../refined-set-2016/3l7b/3l7b_pocket.pdb
REMARK  238 active torsions:
REMARK  status: ('A' for Active; 'I' for Inactive)
REMARK    1  A    between atoms: _1  and  _3
REMARK    2  A    between atoms: _3  and  _4
REMARK    3  A    between atoms: _3  and  _6
REMARK    4  A    between atoms: _6  and  _7
REMARK    5  A    between atoms: _12  and  _13
REMARK    6  A    between atoms: _15  and  _17
REMARK    7  A    between atoms: _17  and  _18
REMARK    8  A    between atoms: _17  and  _20
REMARK    9  A    between atoms: _20  and  _21
REMARK   10  A    between atoms: _21  and  _22
REMARK   11  A    between atoms: _25  and  _27
REMARK   12  A    between atoms: _27  and  _28
REMARK   13  A    between atoms: _27  and  _30
REMARK   14  A    between atoms: _30  and  _31
REMARK   15  A    between atoms: _36  and  _37
REMARK   16  A    between atoms: _39  and  _41
REMARK   17  A    between atoms: _41  and  _42
REMARK   18  A    between atoms: _41  and  _44
REMARK   19  A    between atoms: _44  and  _45
REMARK   20  A    between atoms: _50  and  _52
REMARK   21  A    between atoms: _52  and  _53
REMARK   22  A    between atoms: _55  and  _57
REMARK   23  A    between atoms: _57  and  _58
REMARK   24  A    between atoms: _60  and  _62
REMARK   25  A    between atoms: _62  and  _63
REMARK   26  A    between atoms: _62  and  _65
REMARK   27  A    between atoms: _65  and  _66
REMARK   28  A    between atoms: _69  and  _71
REMARK   29  A    between atoms: _71  and  _72
REMARK   30  A    between atoms: _74  and  _76
REMARK   31  A    between atoms: _76  and  _77
REMARK   32  A    between atoms: _76  and  _79
REMARK   33  A    between atoms: _80  and  _81
REMARK   34  A    between atoms: _81  and  _82
REMARK   35  A    between atoms: _91  and  _93
REMARK   36  A    between atoms: _93  and  _94
REMARK   37  A    between atoms: _93  and  _96
REMARK   38  A    between atoms: _96  and  _97
REMARK   39  A    between atoms: _100  and  _102
REMARK   40  A    between atoms: _102  and  _103
REMARK   41  A    between atoms: _106  and  _108
REMARK   42  A    between atoms: _108  and  _109
REMARK   43  A    between atoms: _108  and  _111
REMARK   44  A    between atoms: _111  and  _112
REMARK   45  A    between atoms: _118  and  _120
REMARK   46  A    between atoms: _120  and  _121
REMARK   47  A    between atoms: _120  and  _123
REMARK   48  A    between atoms: _123  and  _124
REMARK   49  A    between atoms: _129  and  _131
REMARK   50  A    between atoms: _131  and  _132
REMARK   51  A    between atoms: _131  and  _134
REMARK   52  A    between atoms: _134  and  _135
REMARK   53  A    between atoms: _138  and  _140
REMARK   54  A    between atoms: _140  and  _141
REMARK   55  A    between atoms: _140  and  _143
REMARK   56  A    between atoms: _143  and  _144
REMARK   57  A    between atoms: _149  and  _151
REMARK   58  A    between atoms: _151  and  _152
REMARK   59  A    between atoms: _151  and  _154
REMARK   60  A    between atoms: _154  and  _155
REMARK   61  A    between atoms: _161  and  _163
REMARK   62  A    between atoms: _163  and  _164
REMARK   63  A    between atoms: _163  and  _166
REMARK   64  A    between atoms: _166  and  _167
REMARK   65  A    between atoms: _173  and  _175
REMARK   66  A    between atoms: _175  and  _176
REMARK   67  A    between atoms: _175  and  _178
REMARK   68  A    between atoms: _178  and  _179
REMARK   69  A    between atoms: _179  and  _180
REMARK   70  A    between atoms: _180  and  _181
REMARK   71  A    between atoms: _190  and  _192
REMARK   72  A    between atoms: _192  and  _193
REMARK   73  A    between atoms: _192  and  _195
REMARK   74  A    between atoms: _195  and  _196
REMARK   75  A    between atoms: _201  and  _203
REMARK   76  A    between atoms: _203  and  _204
REMARK   77  A    between atoms: _203  and  _206
REMARK   78  A    between atoms: _206  and  _207
REMARK   79  A    between atoms: _210  and  _212
REMARK   80  A    between atoms: _212  and  _213
REMARK   81  A    between atoms: _212  and  _215
REMARK   82  A    between atoms: _215  and  _216
REMARK   83  A    between atoms: _219  and  _221
REMARK   84  A    between atoms: _221  and  _222
REMARK   85  A    between atoms: _221  and  _224
REMARK   86  A    between atoms: _224  and  _225
REMARK   87  A    between atoms: _230  and  _232
REMARK   88  A    between atoms: _232  and  _233
REMARK   89  A    between atoms: _232  and  _235
REMARK   90  A    between atoms: _235  and  _236
REMARK   91  A    between atoms: _239  and  _241
REMARK   92  A    between atoms: _241  and  _242
REMARK   93  A    between atoms: _241  and  _244
REMARK   94  A    between atoms: _244  and  _245
REMARK   95  A    between atoms: _250  and  _252
REMARK   96  A    between atoms: _252  and  _253
REMARK   97  A    between atoms: _252  and  _255
REMARK   98  A    between atoms: _255  and  _256
REMARK   99  A    between atoms: _261  and  _263
REMARK  100  A    between atoms: _263  and  _264
REMARK  101  A    between atoms: _263  and  _266
REMARK  102  A    between atoms: _266  and  _267
REMARK  103  A    between atoms: _270  and  _272
REMARK  104  A    between atoms: _272  and  _273
REMARK  105  A    between atoms: _272  and  _275
REMARK  106  A    between atoms: _278  and  _280
REMARK  107  A    between atoms: _280  and  _281
REMARK  108  A    between atoms: _280  and  _283
REMARK  109  A    between atoms: _283  and  _284
REMARK  110  A    between atoms: _287  and  _289
REMARK  111  A    between atoms: _289  and  _290
REMARK  112  A    between atoms: _293  and  _295
REMARK  113  A    between atoms: _295  and  _296
REMARK  114  A    between atoms: _295  and  _298
REMARK  115  A    between atoms: _298  and  _299
REMARK  116  A    between atoms: _302  and  _304
REMARK  117  A    between atoms: _304  and  _305
REMARK  118  A    between atoms: _304  and  _307
REMARK  119  A    between atoms: _307  and  _308
REMARK  120  A    between atoms: _308  and  _309
REMARK  121  A    between atoms: _312  and  _314
REMARK  122  A    between atoms: _314  and  _315
REMARK  123  A    between atoms: _314  and  _317
REMARK  124  A    between atoms: _317  and  _318
REMARK  125  A    between atoms: _323  and  _325
REMARK  126  A    between atoms: _325  and  _326
REMARK  127  A    between atoms: _328  and  _330
REMARK  128  A    between atoms: _330  and  _331
REMARK  129  A    between atoms: _330  and  _333
REMARK  130  A    between atoms: _336  and  _338
REMARK  131  A    between atoms: _338  and  _339
REMARK  132  A    between atoms: _342  and  _344
REMARK  133  A    between atoms: _344  and  _345
REMARK  134  A    between atoms: _344  and  _347
REMARK  135  A    between atoms: _347  and  _348
REMARK  136  A    between atoms: _353  and  _355
REMARK  137  A    between atoms: _355  and  _356
REMARK  138  A    between atoms: _355  and  _358
REMARK  139  A    between atoms: _358  and  _359
REMARK  140  A    between atoms: _359  and  _360
REMARK  141  A    between atoms: _360  and  _361
REMARK  142  A    between atoms: _361  and  _362
REMARK  143  A    between atoms: _366  and  _368
REMARK  144  A    between atoms: _368  and  _369
REMARK  145  A    between atoms: _368  and  _371
REMARK  146  A    between atoms: _371  and  _372
REMARK  147  A    between atoms: _377  and  _379
REMARK  148  A    between atoms: _379  and  _380
REMARK  149  A    between atoms: _382  and  _384
REMARK  150  A    between atoms: _384  and  _385
REMARK  151  A    between atoms: _384  and  _387
REMARK  152  A    between atoms: _387  and  _388
REMARK  153  A    between atoms: _391  and  _393
REMARK  154  A    between atoms: _393  and  _394
REMARK  155  A    between atoms: _393  and  _396
REMARK  156  A    between atoms: _396  and  _397
REMARK  157  A    between atoms: _397  and  _398
REMARK  158  A    between atoms: _398  and  _399
REMARK  159  A    between atoms: _399  and  _400
REMARK  160  A    between atoms: _404  and  _406
REMARK  161  A    between atoms: _406  and  _407
REMARK  162  A    between atoms: _406  and  _409
REMARK  163  A    between atoms: _409  and  _410
REMARK  164  A    between atoms: _410  and  _411
REMARK  165  A    between atoms: _411  and  _412
REMARK  166  A    between atoms: _421  and  _423
REMARK  167  A    between atoms: _423  and  _424
REMARK  168  A    between atoms: _423  and  _426
REMARK  169  A    between atoms: _426  and  _427
REMARK  170  A    between atoms: _432  and  _433
REMARK  171  A    between atoms: _435  and  _437
REMARK  172  A    between atoms: _437  and  _438
REMARK  173  A    between atoms: _437  and  _440
REMARK  174  A    between atoms: _440  and  _441
REMARK  175  A    between atoms: _441  and  _442
REMARK  176  A    between atoms: _442  and  _443
REMARK  177  A    between atoms: _443  and  _444
REMARK  178  A    between atoms: _448  and  _450
REMARK  179  A    between atoms: _450  and  _451
REMARK  180  A    between atoms: _450  and  _453
REMARK  181  A    between atoms: _453  and  _454
REMARK  182  A    between atoms: _456  and  _458
REMARK  183  A    between atoms: _458  and  _459
REMARK  184  A    between atoms: _458  and  _461
REMARK  185  A    between atoms: _461  and  _462
REMARK  186  A    between atoms: _465  and  _467
REMARK  187  A    between atoms: _467  and  _468
REMARK  188  A    between atoms: _467  and  _470
REMARK  189  A    between atoms: _470  and  _471
REMARK  190  A    between atoms: _471  and  _472
REMARK  191  A    between atoms: _475  and  _477
REMARK  192  A    between atoms: _477  and  _478
REMARK  193  A    between atoms: _481  and  _483
REMARK  194  A    between atoms: _483  and  _484
REMARK  195  A    between atoms: _483  and  _486
REMARK  196  A    between atoms: _486  and  _487
REMARK  197  A    between atoms: _489  and  _491
REMARK  198  A    between atoms: _491  and  _492
REMARK  199  A    between atoms: _494  and  _496
REMARK  200  A    between atoms: _496  and  _497
REMARK  201  A    between atoms: _496  and  _499
REMARK  202  A    between atoms: _499  and  _500
REMARK  203  A    between atoms: _503  and  _505
REMARK  204  A    between atoms: _505  and  _506
REMARK  205  A    between atoms: _508  and  _510
REMARK  206  A    between atoms: _510  and  _511
REMARK  207  A    between atoms: _510  and  _513
REMARK  208  A    between atoms: _513  and  _514
REMARK  209  A    between atoms: _519  and  _521
REMARK  210  A    between atoms: _521  and  _522
REMARK  211  A    between atoms: _521  and  _524
REMARK  212  A    between atoms: _524  and  _525
REMARK  213  A    between atoms: _525  and  _526
REMARK  214  A    between atoms: _533  and  _534
REMARK  215  A    between atoms: _534  and  _550
REMARK  216  A    between atoms: _535  and  _537
REMARK  217  A    between atoms: _537  and  _538
REMARK  218  A    between atoms: _538  and  _539
REMARK  219  A    between atoms: _543  and  _545
REMARK  220  A    between atoms: _545  and  _546
REMARK  221  A    between atoms: _545  and  _553
REMARK  222  A    between atoms: _546  and  _547
REMARK  223  A    between atoms: _547  and  _548
REMARK  224  A    between atoms: _548  and  _549
REMARK  225  A    between atoms: _549  and  _550
REMARK  226  A    between atoms: _555  and  _557
REMARK  227  A    between atoms: _557  and  _558
REMARK  228  A    between atoms: _557  and  _560
REMARK  229  A    between atoms: _560  and  _561
REMARK  230  A    between atoms: _564  and  _566
REMARK  231  A    between atoms: _566  and  _567
REMARK  232  A    between atoms: _569  and  _571
REMARK  233  A    between atoms: _571  and  _572
REMARK  234  A    between atoms: _575  and  _577
REMARK  235  A    between atoms: _577  and  _578
REMARK  236  A    between atoms: _577  and  _580
REMARK  237  A    between atoms: _580  and  _581
REMARK  238  A    between atoms: _586  and  _587
REMARK                            x       y       z     vdW  Elec       q    Type
REMARK                         _______ _______ _______ _____ _____    ______ ____
ROOT
ATOM      1  O   HOH     1      29.774  26.273  18.438  0.00  0.00    +0.000 OA
ENDROOT
TORSDOF 0
REMARK  Name = ../refined-set-2016/3l7b/3l7b_pocket.pdb
REMARK  238 active torsions:
REMARK  status: ('A' for Active; 'I' for Inactive)
REMARK    1  A    between atoms: _1  and  _3
REMARK    2  A    between atoms: _3  and  _4
REMARK    3  A    between atoms: _3  and  _6
REMARK    4  A    between atoms: _6  and  _7
REMARK    5  A    between atoms: _12  and  _13
REMARK    6  A    between atoms: _15  and  _17
REMARK    7  A    between atoms: _17  and  _18
REMARK    8  A    between atoms: _17  and  _20
REMARK    9  A    between atoms: _20  and  _21
REMARK   10  A    between atoms: _21  and  _22
REMARK   11  A    between atoms: _25  and  _27
REMARK   12  A    between atoms: _27  and  _28
REMARK   13  A    between atoms: _27  and  _30
REMARK   14  A    between atoms: _30  and  _31
REMARK   15  A    between atoms: _36  and  _37
REMARK   16  A    between atoms: _39  and  _41
REMARK   17  A    between atoms: _41  and  _42
REMARK   18  A    between atoms: _41  and  _44
REMARK   19  A    between atoms: _44  and  _45
REMARK   20  A    between atoms: _50  and  _52
REMARK   21  A    between atoms: _52  and  _53
REMARK   22  A    between atoms: _55  and  _57
REMARK   23  A    between atoms: _57  and  _58
REMARK   24  A    between atoms: _60  and  _62
REMARK   25  A    between atoms: _62  and  _63
REMARK   26  A    between atoms: _62  and  _65
REMARK   27  A    between atoms: _65  and  _66
REMARK   28  A    between atoms: _69  and  _71
REMARK   29  A    between atoms: _71  and  _72
REMARK   30  A    between atoms: _74  and  _76
REMARK   31  A    between atoms: _76  and  _77
REMARK   32  A    between atoms: _76  and  _79
REMARK   33  A    between atoms: _80  and  _81
REMARK   34  A    between atoms: _81  and  _82
REMARK   35  A    between atoms: _91  and  _93
REMARK   36  A    between atoms: _93  and  _94
REMARK   37  A    between atoms: _93  and  _96
REMARK   38  A    between atoms: _96  and  _97
REMARK   39  A    between atoms: _100  and  _102
REMARK   40  A    between atoms: _102  and  _103
REMARK   41  A    between atoms: _106  and  _108
REMARK   42  A    between atoms: _108  and  _109
REMARK   43  A    between atoms: _108  and  _111
REMARK   44  A    between atoms: _111  and  _112
REMARK   45  A    between atoms: _118  and  _120
REMARK   46  A    between atoms: _120  and  _121
REMARK   47  A    between atoms: _120  and  _123
REMARK   48  A    between atoms: _123  and  _124
REMARK   49  A    between atoms: _129  and  _131
REMARK   50  A    between atoms: _131  and  _132
REMARK   51  A    between atoms: _131  and  _134
REMARK   52  A    between atoms: _134  and  _135
REMARK   53  A    between atoms: _138  and  _140
REMARK   54  A    between atoms: _140  and  _141
REMARK   55  A    between atoms: _140  and  _143
REMARK   56  A    between atoms: _143  and  _144
REMARK   57  A    between atoms: _149  and  _151
REMARK   58  A    between atoms: _151  and  _152
REMARK   59  A    between atoms: _151  and  _154
REMARK   60  A    between atoms: _154  and  _155
REMARK   61  A    between atoms: _161  and  _163
REMARK   62  A    between atoms: _163  and  _164
REMARK   63  A    between atoms: _163  and  _166
REMARK   64  A    between atoms: _166  and  _167
REMARK   65  A    between atoms: _173  and  _175
REMARK   66  A    between atoms: _175  and  _176
REMARK   67  A    between atoms: _175  and  _178
REMARK   68  A    between atoms: _178  and  _179
REMARK   69  A    between atoms: _179  and  _180
REMARK   70  A    between atoms: _180  and  _181
REMARK   71  A    between atoms: _190  and  _192
REMARK   72  A    between atoms: _192  and  _193
REMARK   73  A    between atoms: _192  and  _195
REMARK   74  A    between atoms: _195  and  _196
REMARK   75  A    between atoms: _201  and  _203
REMARK   76  A    between atoms: _203  and  _204
REMARK   77  A    between atoms: _203  and  _206
REMARK   78  A    between atoms: _206  and  _207
REMARK   79  A    between atoms: _210  and  _212
REMARK   80  A    between atoms: _212  and  _213
REMARK   81  A    between atoms: _212  and  _215
REMARK   82  A    between atoms: _215  and  _216
REMARK   83  A    between atoms: _219  and  _221
REMARK   84  A    between atoms: _221  and  _222
REMARK   85  A    between atoms: _221  and  _224
REMARK   86  A    between atoms: _224  and  _225
REMARK   87  A    between atoms: _230  and  _232
REMARK   88  A    between atoms: _232  and  _233
REMARK   89  A    between atoms: _232  and  _235
REMARK   90  A    between atoms: _235  and  _236
REMARK   91  A    between atoms: _239  and  _241
REMARK   92  A    between atoms: _241  and  _242
REMARK   93  A    between atoms: _241  and  _244
REMARK   94  A    between atoms: _244  and  _245
REMARK   95  A    between atoms: _250  and  _252
REMARK   96  A    between atoms: _252  and  _253
REMARK   97  A    between atoms: _252  and  _255
REMARK   98  A    between atoms: _255  and  _256
REMARK   99  A    between atoms: _261  and  _263
REMARK  100  A    between atoms: _263  and  _264
REMARK  101  A    between atoms: _263  and  _266
REMARK  102  A    between atoms: _266  and  _267
REMARK  103  A    between atoms: _270  and  _272
REMARK  104  A    between atoms: _272  and  _273
REMARK  105  A    between atoms: _272  and  _275
REMARK  106  A    between atoms: _278  and  _280
REMARK  107  A    between atoms: _280  and  _281
REMARK  108  A    between atoms: _280  and  _283
REMARK  109  A    between atoms: _283  and  _284
REMARK  110  A    between atoms: _287  and  _289
REMARK  111  A    between atoms: _289  and  _290
REMARK  112  A    between atoms: _293  and  _295
REMARK  113  A    between atoms: _295  and  _296
REMARK  114  A    between atoms: _295  and  _298
REMARK  115  A    between atoms: _298  and  _299
REMARK  116  A    between atoms: _302  and  _304
REMARK  117  A    between atoms: _304  and  _305
REMARK  118  A    between atoms: _304  and  _307
REMARK  119  A    between atoms: _307  and  _308
REMARK  120  A    between atoms: _308  and  _309
REMARK  121  A    between atoms: _312  and  _314
REMARK  122  A    between atoms: _314  and  _315
REMARK  123  A    between atoms: _314  and  _317
REMARK  124  A    between atoms: _317  and  _318
REMARK  125  A    between atoms: _323  and  _325
REMARK  126  A    between atoms: _325  and  _326
REMARK  127  A    between atoms: _328  and  _330
REMARK  128  A    between atoms: _330  and  _331
REMARK  129  A    between atoms: _330  and  _333
REMARK  130  A    between atoms: _336  and  _338
REMARK  131  A    between atoms: _338  and  _339
REMARK  132  A    between atoms: _342  and  _344
REMARK  133  A    between atoms: _344  and  _345
REMARK  134  A    between atoms: _344  and  _347
REMARK  135  A    between atoms: _347  and  _348
REMARK  136  A    between atoms: _353  and  _355
REMARK  137  A    between atoms: _355  and  _356
REMARK  138  A    between atoms: _355  and  _358
REMARK  139  A    between atoms: _358  and  _359
REMARK  140  A    between atoms: _359  and  _360
REMARK  141  A    between atoms: _360  and  _361
REMARK  142  A    between atoms: _361  and  _362
REMARK  143  A    between atoms: _366  and  _368
REMARK  144  A    between atoms: _368  and  _369
REMARK  145  A    between atoms: _368  and  _371
REMARK  146  A    between atoms: _371  and  _372
REMARK  147  A    between atoms: _377  and  _379
REMARK  148  A    between atoms: _379  and  _380
REMARK  149  A    between atoms: _382  and  _384
REMARK  150  A    between atoms: _384  and  _385
REMARK  151  A    between atoms: _384  and  _387
REMARK  152  A    between atoms: _387  and  _388
REMARK  153  A    between atoms: _391  and  _393
REMARK  154  A    between atoms: _393  and  _394
REMARK  155  A    between atoms: _393  and  _396
REMARK  156  A    between atoms: _396  and  _397
REMARK  157  A    between atoms: _397  and  _398
REMARK  158  A    between atoms: _398  and  _399
REMARK  159  A    between atoms: _399  and  _400
REMARK  160  A    between atoms: _404  and  _406
REMARK  161  A    between atoms: _406  and  _407
REMARK  162  A    between atoms: _406  and  _409
REMARK  163  A    between atoms: _409  and  _410
REMARK  164  A    between atoms: _410  and  _411
REMARK  165  A    between atoms: _411  and  _412
REMARK  166  A    between atoms: _421  and  _423
REMARK  167  A    between atoms: _423  and  _424
REMARK  168  A    between atoms: _423  and  _426
REMARK  169  A    between atoms: _426  and  _427
REMARK  170  A    between atoms: _432  and  _433
REMARK  171  A    between atoms: _435  and  _437
REMARK  172  A    between atoms: _437  and  _438
REMARK  173  A    between atoms: _437  and  _440
REMARK  174  A    between atoms: _440  and  _441
REMARK  175  A    between atoms: _441  and  _442
REMARK  176  A    between atoms: _442  and  _443
REMARK  177  A    between atoms: _443  and  _444
REMARK  178  A    between atoms: _448  and  _450
REMARK  179  A    between atoms: _450  and  _451
REMARK  180  A    between atoms: _450  and  _453
REMARK  181  A    between atoms: _453  and  _454
REMARK  182  A    between atoms: _456  and  _458
REMARK  183  A    between atoms: _458  and  _459
REMARK  184  A    between atoms: _458  and  _461
REMARK  185  A    between atoms: _461  and  _462
REMARK  186  A    between atoms: _465  and  _467
REMARK  187  A    between atoms: _467  and  _468
REMARK  188  A    between atoms: _467  and  _470
REMARK  189  A    between atoms: _470  and  _471
REMARK  190  A    between atoms: _471  and  _472
REMARK  191  A    between atoms: _475  and  _477
REMARK  192  A    between atoms: _477  and  _478
REMARK  193  A    between atoms: _481  and  _483
REMARK  194  A    between atoms: _483  and  _484
REMARK  195  A    between atoms: _483  and  _486
REMARK  196  A    between atoms: _486  and  _487
REMARK  197  A    between atoms: _489  and  _491
REMARK  198  A    between atoms: _491  and  _492
REMARK  199  A    between atoms: _494  and  _496
REMARK  200  A    between atoms: _496  and  _497
REMARK  201  A    between atoms: _496  and  _499
REMARK  202  A    between atoms: _499  and  _500
REMARK  203  A    between atoms: _503  and  _505
REMARK  204  A    between atoms: _505  and  _506
REMARK  205  A    between atoms: _508  and  _510
REMARK  206  A    between atoms: _510  and  _511
REMARK  207  A    between atoms: _510  and  _513
REMARK  208  A    between atoms: _513  and  _514
REMARK  209  A    between atoms: _519  and  _521
REMARK  210  A    between atoms: _521  and  _522
REMARK  211  A    between atoms: _521  and  _524
REMARK  212  A    between atoms: _524  and  _525
REMARK  213  A    between atoms: _525  and  _526
REMARK  214  A    between atoms: _533  and  _534
REMARK  215  A    between atoms: _534  and  _550
REMARK  216  A    between atoms: _535  and  _537
REMARK  217  A    between atoms: _537  and  _538
REMARK  218  A    between atoms: _538  and  _539
REMARK  219  A    between atoms: _543  and  _545
REMARK  220  A    between atoms: _545  and  _546
REMARK  221  A    between atoms: _545  and  _553
REMARK  222  A    between atoms: _546  and  _547
REMARK  223  A    between atoms: _547  and  _548
REMARK  224  A    between atoms: _548  and  _549
REMARK  225  A    between atoms: _549  and  _550
REMARK  226  A    between atoms: _555  and  _557
REMARK  227  A    between atoms: _557  and  _558
REMARK  228  A    between atoms: _557  and  _560
REMARK  229  A    between atoms: _560  and  _561
REMARK  230  A    between atoms: _564  and  _566
REMARK  231  A    between atoms: _566  and  _567
REMARK  232  A    between atoms: _569  and  _571
REMARK  233  A    between atoms: _571  and  _572
REMARK  234  A    between atoms: _575  and  _577
REMARK  235  A    between atoms: _577  and  _578
REMARK  236  A    between atoms: _577  and  _580
REMARK  237  A    between atoms: _580  and  _581
REMARK  238  A    between atoms: _586  and  _587
REMARK                            x       y       z     vdW  Elec       q    Type
REMARK                         _______ _______ _______ _____ _____    ______ ____
ROOT
ATOM      1  O   HOH     1      30.102  23.351  18.829  0.00  0.00    +0.000 OA
ENDROOT
TORSDOF 0
REMARK  Name = ../refined-set-2016/3l7b/3l7b_pocket.pdb
REMARK  238 active torsions:
REMARK  status: ('A' for Active; 'I' for Inactive)
REMARK    1  A    between atoms: _1  and  _3
REMARK    2  A    between atoms: _3  and  _4
REMARK    3  A    between atoms: _3  and  _6
REMARK    4  A    between atoms: _6  and  _7
REMARK    5  A    between atoms: _12  and  _13
REMARK    6  A    between atoms: _15  and  _17
REMARK    7  A    between atoms: _17  and  _18
REMARK    8  A    between atoms: _17  and  _20
REMARK    9  A    between atoms: _20  and  _21
REMARK   10  A    between atoms: _21  and  _22
REMARK   11  A    between atoms: _25  and  _27
REMARK   12  A    between atoms: _27  and  _28
REMARK   13  A    between atoms: _27  and  _30
REMARK   14  A    between atoms: _30  and  _31
REMARK   15  A    between atoms: _36  and  _37
REMARK   16  A    between atoms: _39  and  _41
REMARK   17  A    between atoms: _41  and  _42
REMARK   18  A    between atoms: _41  and  _44
REMARK   19  A    between atoms: _44  and  _45
REMARK   20  A    between atoms: _50  and  _52
REMARK   21  A    between atoms: _52  and  _53
REMARK   22  A    between atoms: _55  and  _57
REMARK   23  A    between atoms: _57  and  _58
REMARK   24  A    between atoms: _60  and  _62
REMARK   25  A    between atoms: _62  and  _63
REMARK   26  A    between atoms: _62  and  _65
REMARK   27  A    between atoms: _65  and  _66
REMARK   28  A    between atoms: _69  and  _71
REMARK   29  A    between atoms: _71  and  _72
REMARK   30  A    between atoms: _74  and  _76
REMARK   31  A    between atoms: _76  and  _77
REMARK   32  A    between atoms: _76  and  _79
REMARK   33  A    between atoms: _80  and  _81
REMARK   34  A    between atoms: _81  and  _82
REMARK   35  A    between atoms: _91  and  _93
REMARK   36  A    between atoms: _93  and  _94
REMARK   37  A    between atoms: _93  and  _96
REMARK   38  A    between atoms: _96  and  _97
REMARK   39  A    between atoms: _100  and  _102
REMARK   40  A    between atoms: _102  and  _103
REMARK   41  A    between atoms: _106  and  _108
REMARK   42  A    between atoms: _108  and  _109
REMARK   43  A    between atoms: _108  and  _111
REMARK   44  A    between atoms: _111  and  _112
REMARK   45  A    between atoms: _118  and  _120
REMARK   46  A    between atoms: _120  and  _121
REMARK   47  A    between atoms: _120  and  _123
REMARK   48  A    between atoms: _123  and  _124
REMARK   49  A    between atoms: _129  and  _131
REMARK   50  A    between atoms: _131  and  _132
REMARK   51  A    between atoms: _131  and  _134
REMARK   52  A    between atoms: _134  and  _135
REMARK   53  A    between atoms: _138  and  _140
REMARK   54  A    between atoms: _140  and  _141
REMARK   55  A    between atoms: _140  and  _143
REMARK   56  A    between atoms: _143  and  _144
REMARK   57  A    between atoms: _149  and  _151
REMARK   58  A    between atoms: _151  and  _152
REMARK   59  A    between atoms: _151  and  _154
REMARK   60  A    between atoms: _154  and  _155
REMARK   61  A    between atoms: _161  and  _163
REMARK   62  A    between atoms: _163  and  _164
REMARK   63  A    between atoms: _163  and  _166
REMARK   64  A    between atoms: _166  and  _167
REMARK   65  A    between atoms: _173  and  _175
REMARK   66  A    between atoms: _175  and  _176
REMARK   67  A    between atoms: _175  and  _178
REMARK   68  A    between atoms: _178  and  _179
REMARK   69  A    between atoms: _179  and  _180
REMARK   70  A    between atoms: _180  and  _181
REMARK   71  A    between atoms: _190  and  _192
REMARK   72  A    between atoms: _192  and  _193
REMARK   73  A    between atoms: _192  and  _195
REMARK   74  A    between atoms: _195  and  _196
REMARK   75  A    between atoms: _201  and  _203
REMARK   76  A    between atoms: _203  and  _204
REMARK   77  A    between atoms: _203  and  _206
REMARK   78  A    between atoms: _206  and  _207
REMARK   79  A    between atoms: _210  and  _212
REMARK   80  A    between atoms: _212  and  _213
REMARK   81  A    between atoms: _212  and  _215
REMARK   82  A    between atoms: _215  and  _216
REMARK   83  A    between atoms: _219  and  _221
REMARK   84  A    between atoms: _221  and  _222
REMARK   85  A    between atoms: _221  and  _224
REMARK   86  A    between atoms: _224  and  _225
REMARK   87  A    between atoms: _230  and  _232
REMARK   88  A    between atoms: _232  and  _233
REMARK   89  A    between atoms: _232  and  _235
REMARK   90  A    between atoms: _235  and  _236
REMARK   91  A    between atoms: _239  and  _241
REMARK   92  A    between atoms: _241  and  _242
REMARK   93  A    between atoms: _241  and  _244
REMARK   94  A    between atoms: _244  and  _245
REMARK   95  A    between atoms: _250  and  _252
REMARK   96  A    between atoms: _252  and  _253
REMARK   97  A    between atoms: _252  and  _255
REMARK   98  A    between atoms: _255  and  _256
REMARK   99  A    between atoms: _261  and  _263
REMARK  100  A    between atoms: _263  and  _264
REMARK  101  A    between atoms: _263  and  _266
REMARK  102  A    between atoms: _266  and  _267
REMARK  103  A    between atoms: _270  and  _272
REMARK  104  A    between atoms: _272  and  _273
REMARK  105  A    between atoms: _272  and  _275
REMARK  106  A    between atoms: _278  and  _280
REMARK  107  A    between atoms: _280  and  _281
REMARK  108  A    between atoms: _280  and  _283
REMARK  109  A    between atoms: _283  and  _284
REMARK  110  A    between atoms: _287  and  _289
REMARK  111  A    between atoms: _289  and  _290
REMARK  112  A    between atoms: _293  and  _295
REMARK  113  A    between atoms: _295  and  _296
REMARK  114  A    between atoms: _295  and  _298
REMARK  115  A    between atoms: _298  and  _299
REMARK  116  A    between atoms: _302  and  _304
REMARK  117  A    between atoms: _304  and  _305
REMARK  118  A    between atoms: _304  and  _307
REMARK  119  A    between atoms: _307  and  _308
REMARK  120  A    between atoms: _308  and  _309
REMARK  121  A    between atoms: _312  and  _314
REMARK  122  A    between atoms: _314  and  _315
REMARK  123  A    between atoms: _314  and  _317
REMARK  124  A    between atoms: _317  and  _318
REMARK  125  A    between atoms: _323  and  _325
REMARK  126  A    between atoms: _325  and  _326
REMARK  127  A    between atoms: _328  and  _330
REMARK  128  A    between atoms: _330  and  _331
REMARK  129  A    between atoms: _330  and  _333
REMARK  130  A    between atoms: _336  and  _338
REMARK  131  A    between atoms: _338  and  _339
REMARK  132  A    between atoms: _342  and  _344
REMARK  133  A    between atoms: _344  and  _345
REMARK  134  A    between atoms: _344  and  _347
REMARK  135  A    between atoms: _347  and  _348
REMARK  136  A    between atoms: _353  and  _355
REMARK  137  A    between atoms: _355  and  _356
REMARK  138  A    between atoms: _355  and  _358
REMARK  139  A    between atoms: _358  and  _359
REMARK  140  A    between atoms: _359  and  _360
REMARK  141  A    between atoms: _360  and  _361
REMARK  142  A    between atoms: _361  and  _362
REMARK  143  A    between atoms: _366  and  _368
REMARK  144  A    between atoms: _368  and  _369
REMARK  145  A    between atoms: _368  and  _371
REMARK  146  A    between atoms: _371  and  _372
REMARK  147  A    between atoms: _377  and  _379
REMARK  148  A    between atoms: _379  and  _380
REMARK  149  A    between atoms: _382  and  _384
REMARK  150  A    between atoms: _384  and  _385
REMARK  151  A    between atoms: _384  and  _387
REMARK  152  A    between atoms: _387  and  _388
REMARK  153  A    between atoms: _391  and  _393
REMARK  154  A    between atoms: _393  and  _394
REMARK  155  A    between atoms: _393  and  _396
REMARK  156  A    between atoms: _396  and  _397
REMARK  157  A    between atoms: _397  and  _398
REMARK  158  A    between atoms: _398  and  _399
REMARK  159  A    between atoms: _399  and  _400
REMARK  160  A    between atoms: _404  and  _406
REMARK  161  A    between atoms: _406  and  _407
REMARK  162  A    between atoms: _406  and  _409
REMARK  163  A    between atoms: _409  and  _410
REMARK  164  A    between atoms: _410  and  _411
REMARK  165  A    between atoms: _411  and  _412
REMARK  166  A    between atoms: _421  and  _423
REMARK  167  A    between atoms: _423  and  _424
REMARK  168  A    between atoms: _423  and  _426
REMARK  169  A    between atoms: _426  and  _427
REMARK  170  A    between atoms: _432  and  _433
REMARK  171  A    between atoms: _435  and  _437
REMARK  172  A    between atoms: _437  and  _438
REMARK  173  A    between atoms: _437  and  _440
REMARK  174  A    between atoms: _440  and  _441
REMARK  175  A    between atoms: _441  and  _442
REMARK  176  A    between atoms: _442  and  _443
REMARK  177  A    between atoms: _443  and  _444
REMARK  178  A    between atoms: _448  and  _450
REMARK  179  A    between atoms: _450  and  _451
REMARK  180  A    between atoms: _450  and  _453
REMARK  181  A    between atoms: _453  and  _454
REMARK  182  A    between atoms: _456  and  _458
REMARK  183  A    between atoms: _458  and  _459
REMARK  184  A    between atoms: _458  and  _461
REMARK  185  A    between atoms: _461  and  _462
REMARK  186  A    between atoms: _465  and  _467
REMARK  187  A    between atoms: _467  and  _468
REMARK  188  A    between atoms: _467  and  _470
REMARK  189  A    between atoms: _470  and  _471
REMARK  190  A    between atoms: _471  and  _472
REMARK  191  A    between atoms: _475  and  _477
REMARK  192  A    between atoms: _477  and  _478
REMARK  193  A    between atoms: _481  and  _483
REMARK  194  A    between atoms: _483  and  _484
REMARK  195  A    between atoms: _483  and  _486
REMARK  196  A    between atoms: _486  and  _487
REMARK  197  A    between atoms: _489  and  _491
REMARK  198  A    between atoms: _491  and  _492
REMARK  199  A    between atoms: _494  and  _496
REMARK  200  A    between atoms: _496  and  _497
REMARK  201  A    between atoms: _496  and  _499
REMARK  202  A    between atoms: _499  and  _500
REMARK  203  A    between atoms: _503  and  _505
REMARK  204  A    between atoms: _505  and  _506
REMARK  205  A    between atoms: _508  and  _510
REMARK  206  A    between atoms: _510  and  _511
REMARK  207  A    between atoms: _510  and  _513
REMARK  208  A    between atoms: _513  and  _514
REMARK  209  A    between atoms: _519  and  _521
REMARK  210  A    between atoms: _521  and  _522
REMARK  211  A    between atoms: _521  and  _524
REMARK  212  A    between atoms: _524  and  _525
REMARK  213  A    between atoms: _525  and  _526
REMARK  214  A    between atoms: _533  and  _534
REMARK  215  A    between atoms: _534  and  _550
REMARK  216  A    between atoms: _535  and  _537
REMARK  217  A    between atoms: _537  and  _538
REMARK  218  A    between atoms: _538  and  _539
REMARK  219  A    between atoms: _543  and  _545
REMARK  220  A    between atoms: _545  and  _546
REMARK  221  A    between atoms: _545  and  _553
REMARK  222  A    between atoms: _546  and  _547
REMARK  223  A    between atoms: _547  and  _548
REMARK  224  A    between atoms: _548  and  _549
REMARK  225  A    between atoms: _549  and  _550
REMARK  226  A    between atoms: _555  and  _557
REMARK  227  A    between atoms: _557  and  _558
REMARK  228  A    between atoms: _557  and  _560
REMARK  229  A    between atoms: _560  and  _561
REMARK  230  A    between atoms: _564  and  _566
REMARK  231  A    between atoms: _566  and  _567
REMARK  232  A    between atoms: _569  and  _571
REMARK  233  A    between atoms: _571  and  _572
REMARK  234  A    between atoms: _575  and  _577
REMARK  235  A    between atoms: _577  and  _578
REMARK  236  A    between atoms: _577  and  _580
REMARK  237  A    between atoms: _580  and  _581
REMARK  238  A    between atoms: _586  and  _587
REMARK                            x       y       z     vdW  Elec       q    Type
REMARK                         _______ _______ _______ _____ _____    ______ ____
ROOT
ATOM      1  O   HOH     1      27.238  19.355  29.054  0.00  0.00    +0.000 OA
ENDROOT
TORSDOF 0
REMARK  Name = ../refined-set-2016/3l7b/3l7b_pocket.pdb
REMARK  238 active torsions:
REMARK  status: ('A' for Active; 'I' for Inactive)
REMARK    1  A    between atoms: _1  and  _3
REMARK    2  A    between atoms: _3  and  _4
REMARK    3  A    between atoms: _3  and  _6
REMARK    4  A    between atoms: _6  and  _7
REMARK    5  A    between atoms: _12  and  _13
REMARK    6  A    between atoms: _15  and  _17
REMARK    7  A    between atoms: _17  and  _18
REMARK    8  A    between atoms: _17  and  _20
REMARK    9  A    between atoms: _20  and  _21
REMARK   10  A    between atoms: _21  and  _22
REMARK   11  A    between atoms: _25  and  _27
REMARK   12  A    between atoms: _27  and  _28
REMARK   13  A    between atoms: _27  and  _30
REMARK   14  A    between atoms: _30  and  _31
REMARK   15  A    between atoms: _36  and  _37
REMARK   16  A    between atoms: _39  and  _41
REMARK   17  A    between atoms: _41  and  _42
REMARK   18  A    between atoms: _41  and  _44
REMARK   19  A    between atoms: _44  and  _45
REMARK   20  A    between atoms: _50  and  _52
REMARK   21  A    between atoms: _52  and  _53
REMARK   22  A    between atoms: _55  and  _57
REMARK   23  A    between atoms: _57  and  _58
REMARK   24  A    between atoms: _60  and  _62
REMARK   25  A    between atoms: _62  and  _63
REMARK   26  A    between atoms: _62  and  _65
REMARK   27  A    between atoms: _65  and  _66
REMARK   28  A    between atoms: _69  and  _71
REMARK   29  A    between atoms: _71  and  _72
REMARK   30  A    between atoms: _74  and  _76
REMARK   31  A    between atoms: _76  and  _77
REMARK   32  A    between atoms: _76  and  _79
REMARK   33  A    between atoms: _80  and  _81
REMARK   34  A    between atoms: _81  and  _82
REMARK   35  A    between atoms: _91  and  _93
REMARK   36  A    between atoms: _93  and  _94
REMARK   37  A    between atoms: _93  and  _96
REMARK   38  A    between atoms: _96  and  _97
REMARK   39  A    between atoms: _100  and  _102
REMARK   40  A    between atoms: _102  and  _103
REMARK   41  A    between atoms: _106  and  _108
REMARK   42  A    between atoms: _108  and  _109
REMARK   43  A    between atoms: _108  and  _111
REMARK   44  A    between atoms: _111  and  _112
REMARK   45  A    between atoms: _118  and  _120
REMARK   46  A    between atoms: _120  and  _121
REMARK   47  A    between atoms: _120  and  _123
REMARK   48  A    between atoms: _123  and  _124
REMARK   49  A    between atoms: _129  and  _131
REMARK   50  A    between atoms: _131  and  _132
REMARK   51  A    between atoms: _131  and  _134
REMARK   52  A    between atoms: _134  and  _135
REMARK   53  A    between atoms: _138  and  _140
REMARK   54  A    between atoms: _140  and  _141
REMARK   55  A    between atoms: _140  and  _143
REMARK   56  A    between atoms: _143  and  _144
REMARK   57  A    between atoms: _149  and  _151
REMARK   58  A    between atoms: _151  and  _152
REMARK   59  A    between atoms: _151  and  _154
REMARK   60  A    between atoms: _154  and  _155
REMARK   61  A    between atoms: _161  and  _163
REMARK   62  A    between atoms: _163  and  _164
REMARK   63  A    between atoms: _163  and  _166
REMARK   64  A    between atoms: _166  and  _167
REMARK   65  A    between atoms: _173  and  _175
REMARK   66  A    between atoms: _175  and  _176
REMARK   67  A    between atoms: _175  and  _178
REMARK   68  A    between atoms: _178  and  _179
REMARK   69  A    between atoms: _179  and  _180
REMARK   70  A    between atoms: _180  and  _181
REMARK   71  A    between atoms: _190  and  _192
REMARK   72  A    between atoms: _192  and  _193
REMARK   73  A    between atoms: _192  and  _195
REMARK   74  A    between atoms: _195  and  _196
REMARK   75  A    between atoms: _201  and  _203
REMARK   76  A    between atoms: _203  and  _204
REMARK   77  A    between atoms: _203  and  _206
REMARK   78  A    between atoms: _206  and  _207
REMARK   79  A    between atoms: _210  and  _212
REMARK   80  A    between atoms: _212  and  _213
REMARK   81  A    between atoms: _212  and  _215
REMARK   82  A    between atoms: _215  and  _216
REMARK   83  A    between atoms: _219  and  _221
REMARK   84  A    between atoms: _221  and  _222
REMARK   85  A    between atoms: _221  and  _224
REMARK   86  A    between atoms: _224  and  _225
REMARK   87  A    between atoms: _230  and  _232
REMARK   88  A    between atoms: _232  and  _233
REMARK   89  A    between atoms: _232  and  _235
REMARK   90  A    between atoms: _235  and  _236
REMARK   91  A    between atoms: _239  and  _241
REMARK   92  A    between atoms: _241  and  _242
REMARK   93  A    between atoms: _241  and  _244
REMARK   94  A    between atoms: _244  and  _245
REMARK   95  A    between atoms: _250  and  _252
REMARK   96  A    between atoms: _252  and  _253
REMARK   97  A    between atoms: _252  and  _255
REMARK   98  A    between atoms: _255  and  _256
REMARK   99  A    between atoms: _261  and  _263
REMARK  100  A    between atoms: _263  and  _264
REMARK  101  A    between atoms: _263  and  _266
REMARK  102  A    between atoms: _266  and  _267
REMARK  103  A    between atoms: _270  and  _272
REMARK  104  A    between atoms: _272  and  _273
REMARK  105  A    between atoms: _272  and  _275
REMARK  106  A    between atoms: _278  and  _280
REMARK  107  A    between atoms: _280  and  _281
REMARK  108  A    between atoms: _280  and  _283
REMARK  109  A    between atoms: _283  and  _284
REMARK  110  A    between atoms: _287  and  _289
REMARK  111  A    between atoms: _289  and  _290
REMARK  112  A    between atoms: _293  and  _295
REMARK  113  A    between atoms: _295  and  _296
REMARK  114  A    between atoms: _295  and  _298
REMARK  115  A    between atoms: _298  and  _299
REMARK  116  A    between atoms: _302  and  _304
REMARK  117  A    between atoms: _304  and  _305
REMARK  118  A    between atoms: _304  and  _307
REMARK  119  A    between atoms: _307  and  _308
REMARK  120  A    between atoms: _308  and  _309
REMARK  121  A    between atoms: _312  and  _314
REMARK  122  A    between atoms: _314  and  _315
REMARK  123  A    between atoms: _314  and  _317
REMARK  124  A    between atoms: _317  and  _318
REMARK  125  A    between atoms: _323  and  _325
REMARK  126  A    between atoms: _325  and  _326
REMARK  127  A    between atoms: _328  and  _330
REMARK  128  A    between atoms: _330  and  _331
REMARK  129  A    between atoms: _330  and  _333
REMARK  130  A    between atoms: _336  and  _338
REMARK  131  A    between atoms: _338  and  _339
REMARK  132  A    between atoms: _342  and  _344
REMARK  133  A    between atoms: _344  and  _345
REMARK  134  A    between atoms: _344  and  _347
REMARK  135  A    between atoms: _347  and  _348
REMARK  136  A    between atoms: _353  and  _355
REMARK  137  A    between atoms: _355  and  _356
REMARK  138  A    between atoms: _355  and  _358
REMARK  139  A    between atoms: _358  and  _359
REMARK  140  A    between atoms: _359  and  _360
REMARK  141  A    between atoms: _360  and  _361
REMARK  142  A    between atoms: _361  and  _362
REMARK  143  A    between atoms: _366  and  _368
REMARK  144  A    between atoms: _368  and  _369
REMARK  145  A    between atoms: _368  and  _371
REMARK  146  A    between atoms: _371  and  _372
REMARK  147  A    between atoms: _377  and  _379
REMARK  148  A    between atoms: _379  and  _380
REMARK  149  A    between atoms: _382  and  _384
REMARK  150  A    between atoms: _384  and  _385
REMARK  151  A    between atoms: _384  and  _387
REMARK  152  A    between atoms: _387  and  _388
REMARK  153  A    between atoms: _391  and  _393
REMARK  154  A    between atoms: _393  and  _394
REMARK  155  A    between atoms: _393  and  _396
REMARK  156  A    between atoms: _396  and  _397
REMARK  157  A    between atoms: _397  and  _398
REMARK  158  A    between atoms: _398  and  _399
REMARK  159  A    between atoms: _399  and  _400
REMARK  160  A    between atoms: _404  and  _406
REMARK  161  A    between atoms: _406  and  _407
REMARK  162  A    between atoms: _406  and  _409
REMARK  163  A    between atoms: _409  and  _410
REMARK  164  A    between atoms: _410  and  _411
REMARK  165  A    between atoms: _411  and  _412
REMARK  166  A    between atoms: _421  and  _423
REMARK  167  A    between atoms: _423  and  _424
REMARK  168  A    between atoms: _423  and  _426
REMARK  169  A    between atoms: _426  and  _427
REMARK  170  A    between atoms: _432  and  _433
REMARK  171  A    between atoms: _435  and  _437
REMARK  172  A    between atoms: _437  and  _438
REMARK  173  A    between atoms: _437  and  _440
REMARK  174  A    between atoms: _440  and  _441
REMARK  175  A    between atoms: _441  and  _442
REMARK  176  A    between atoms: _442  and  _443
REMARK  177  A    between atoms: _443  and  _444
REMARK  178  A    between atoms: _448  and  _450
REMARK  179  A    between atoms: _450  and  _451
REMARK  180  A    between atoms: _450  and  _453
REMARK  181  A    between atoms: _453  and  _454
REMARK  182  A    between atoms: _456  and  _458
REMARK  183  A    between atoms: _458  and  _459
REMARK  184  A    between atoms: _458  and  _461
REMARK  185  A    between atoms: _461  and  _462
REMARK  186  A    between atoms: _465  and  _467
REMARK  187  A    between atoms: _467  and  _468
REMARK  188  A    between atoms: _467  and  _470
REMARK  189  A    between atoms: _470  and  _471
REMARK  190  A    between atoms: _471  and  _472
REMARK  191  A    between atoms: _475  and  _477
REMARK  192  A    between atoms: _477  and  _478
REMARK  193  A    between atoms: _481  and  _483
REMARK  194  A    between atoms: _483  and  _484
REMARK  195  A    between atoms: _483  and  _486
REMARK  196  A    between atoms: _486  and  _487
REMARK  197  A    between atoms: _489  and  _491
REMARK  198  A    between atoms: _491  and  _492
REMARK  199  A    between atoms: _494  and  _496
REMARK  200  A    between atoms: _496  and  _497
REMARK  201  A    between atoms: _496  and  _499
REMARK  202  A    between atoms: _499  and  _500
REMARK  203  A    between atoms: _503  and  _505
REMARK  204  A    between atoms: _505  and  _506
REMARK  205  A    between atoms: _508  and  _510
REMARK  206  A    between atoms: _510  and  _511
REMARK  207  A    between atoms: _510  and  _513
REMARK  208  A    between atoms: _513  and  _514
REMARK  209  A    between atoms: _519  and  _521
REMARK  210  A    between atoms: _521  and  _522
REMARK  211  A    between atoms: _521  and  _524
REMARK  212  A    between atoms: _524  and  _525
REMARK  213  A    between atoms: _525  and  _526
REMARK  214  A    between atoms: _533  and  _534
REMARK  215  A    between atoms: _534  and  _550
REMARK  216  A    between atoms: _535  and  _537
REMARK  217  A    between atoms: _537  and  _538
REMARK  218  A    between atoms: _538  and  _539
REMARK  219  A    between atoms: _543  and  _545
REMARK  220  A    between atoms: _545  and  _546
REMARK  221  A    between atoms: _545  and  _553
REMARK  222  A    between atoms: _546  and  _547
REMARK  223  A    between atoms: _547  and  _548
REMARK  224  A    between atoms: _548  and  _549
REMARK  225  A    between atoms: _549  and  _550
REMARK  226  A    between atoms: _555  and  _557
REMARK  227  A    between atoms: _557  and  _558
REMARK  228  A    between atoms: _557  and  _560
REMARK  229  A    between atoms: _560  and  _561
REMARK  230  A    between atoms: _564  and  _566
REMARK  231  A    between atoms: _566  and  _567
REMARK  232  A    between atoms: _569  and  _571
REMARK  233  A    between atoms: _571  and  _572
REMARK  234  A    between atoms: _575  and  _577
REMARK  235  A    between atoms: _577  and  _578
REMARK  236  A    between atoms: _577  and  _580
REMARK  237  A    between atoms: _580  and  _581
REMARK  238  A    between atoms: _586  and  _587
REMARK                            x       y       z     vdW  Elec       q    Type
REMARK                         _______ _______ _______ _____ _____    ______ ____
ROOT
ATOM      1  O   HOH     1      29.452  21.741  26.496  0.00  0.00    +0.000 OA
ENDROOT
TORSDOF 0
REMARK  Name = ../refined-set-2016/3l7b/3l7b_pocket.pdb
REMARK  238 active torsions:
REMARK  status: ('A' for Active; 'I' for Inactive)
REMARK    1  A    between atoms: _1  and  _3
REMARK    2  A    between atoms: _3  and  _4
REMARK    3  A    between atoms: _3  and  _6
REMARK    4  A    between atoms: _6  and  _7
REMARK    5  A    between atoms: _12  and  _13
REMARK    6  A    between atoms: _15  and  _17
REMARK    7  A    between atoms: _17  and  _18
REMARK    8  A    between atoms: _17  and  _20
REMARK    9  A    between atoms: _20  and  _21
REMARK   10  A    between atoms: _21  and  _22
REMARK   11  A    between atoms: _25  and  _27
REMARK   12  A    between atoms: _27  and  _28
REMARK   13  A    between atoms: _27  and  _30
REMARK   14  A    between atoms: _30  and  _31
REMARK   15  A    between atoms: _36  and  _37
REMARK   16  A    between atoms: _39  and  _41
REMARK   17  A    between atoms: _41  and  _42
REMARK   18  A    between atoms: _41  and  _44
REMARK   19  A    between atoms: _44  and  _45
REMARK   20  A    between atoms: _50  and  _52
REMARK   21  A    between atoms: _52  and  _53
REMARK   22  A    between atoms: _55  and  _57
REMARK   23  A    between atoms: _57  and  _58
REMARK   24  A    between atoms: _60  and  _62
REMARK   25  A    between atoms: _62  and  _63
REMARK   26  A    between atoms: _62  and  _65
REMARK   27  A    between atoms: _65  and  _66
REMARK   28  A    between atoms: _69  and  _71
REMARK   29  A    between atoms: _71  and  _72
REMARK   30  A    between atoms: _74  and  _76
REMARK   31  A    between atoms: _76  and  _77
REMARK   32  A    between atoms: _76  and  _79
REMARK   33  A    between atoms: _80  and  _81
REMARK   34  A    between atoms: _81  and  _82
REMARK   35  A    between atoms: _91  and  _93
REMARK   36  A    between atoms: _93  and  _94
REMARK   37  A    between atoms: _93  and  _96
REMARK   38  A    between atoms: _96  and  _97
REMARK   39  A    between atoms: _100  and  _102
REMARK   40  A    between atoms: _102  and  _103
REMARK   41  A    between atoms: _106  and  _108
REMARK   42  A    between atoms: _108  and  _109
REMARK   43  A    between atoms: _108  and  _111
REMARK   44  A    between atoms: _111  and  _112
REMARK   45  A    between atoms: _118  and  _120
REMARK   46  A    between atoms: _120  and  _121
REMARK   47  A    between atoms: _120  and  _123
REMARK   48  A    between atoms: _123  and  _124
REMARK   49  A    between atoms: _129  and  _131
REMARK   50  A    between atoms: _131  and  _132
REMARK   51  A    between atoms: _131  and  _134
REMARK   52  A    between atoms: _134  and  _135
REMARK   53  A    between atoms: _138  and  _140
REMARK   54  A    between atoms: _140  and  _141
REMARK   55  A    between atoms: _140  and  _143
REMARK   56  A    between atoms: _143  and  _144
REMARK   57  A    between atoms: _149  and  _151
REMARK   58  A    between atoms: _151  and  _152
REMARK   59  A    between atoms: _151  and  _154
REMARK   60  A    between atoms: _154  and  _155
REMARK   61  A    between atoms: _161  and  _163
REMARK   62  A    between atoms: _163  and  _164
REMARK   63  A    between atoms: _163  and  _166
REMARK   64  A    between atoms: _166  and  _167
REMARK   65  A    between atoms: _173  and  _175
REMARK   66  A    between atoms: _175  and  _176
REMARK   67  A    between atoms: _175  and  _178
REMARK   68  A    between atoms: _178  and  _179
REMARK   69  A    between atoms: _179  and  _180
REMARK   70  A    between atoms: _180  and  _181
REMARK   71  A    between atoms: _190  and  _192
REMARK   72  A    between atoms: _192  and  _193
REMARK   73  A    between atoms: _192  and  _195
REMARK   74  A    between atoms: _195  and  _196
REMARK   75  A    between atoms: _201  and  _203
REMARK   76  A    between atoms: _203  and  _204
REMARK   77  A    between atoms: _203  and  _206
REMARK   78  A    between atoms: _206  and  _207
REMARK   79  A    between atoms: _210  and  _212
REMARK   80  A    between atoms: _212  and  _213
REMARK   81  A    between atoms: _212  and  _215
REMARK   82  A    between atoms: _215  and  _216
REMARK   83  A    between atoms: _219  and  _221
REMARK   84  A    between atoms: _221  and  _222
REMARK   85  A    between atoms: _221  and  _224
REMARK   86  A    between atoms: _224  and  _225
REMARK   87  A    between atoms: _230  and  _232
REMARK   88  A    between atoms: _232  and  _233
REMARK   89  A    between atoms: _232  and  _235
REMARK   90  A    between atoms: _235  and  _236
REMARK   91  A    between atoms: _239  and  _241
REMARK   92  A    between atoms: _241  and  _242
REMARK   93  A    between atoms: _241  and  _244
REMARK   94  A    between atoms: _244  and  _245
REMARK   95  A    between atoms: _250  and  _252
REMARK   96  A    between atoms: _252  and  _253
REMARK   97  A    between atoms: _252  and  _255
REMARK   98  A    between atoms: _255  and  _256
REMARK   99  A    between atoms: _261  and  _263
REMARK  100  A    between atoms: _263  and  _264
REMARK  101  A    between atoms: _263  and  _266
REMARK  102  A    between atoms: _266  and  _267
REMARK  103  A    between atoms: _270  and  _272
REMARK  104  A    between atoms: _272  and  _273
REMARK  105  A    between atoms: _272  and  _275
REMARK  106  A    between atoms: _278  and  _280
REMARK  107  A    between atoms: _280  and  _281
REMARK  108  A    between atoms: _280  and  _283
REMARK  109  A    between atoms: _283  and  _284
REMARK  110  A    between atoms: _287  and  _289
REMARK  111  A    between atoms: _289  and  _290
REMARK  112  A    between atoms: _293  and  _295
REMARK  113  A    between atoms: _295  and  _296
REMARK  114  A    between atoms: _295  and  _298
REMARK  115  A    between atoms: _298  and  _299
REMARK  116  A    between atoms: _302  and  _304
REMARK  117  A    between atoms: _304  and  _305
REMARK  118  A    between atoms: _304  and  _307
REMARK  119  A    between atoms: _307  and  _308
REMARK  120  A    between atoms: _308  and  _309
REMARK  121  A    between atoms: _312  and  _314
REMARK  122  A    between atoms: _314  and  _315
REMARK  123  A    between atoms: _314  and  _317
REMARK  124  A    between atoms: _317  and  _318
REMARK  125  A    between atoms: _323  and  _325
REMARK  126  A    between atoms: _325  and  _326
REMARK  127  A    between atoms: _328  and  _330
REMARK  128  A    between atoms: _330  and  _331
REMARK  129  A    between atoms: _330  and  _333
REMARK  130  A    between atoms: _336  and  _338
REMARK  131  A    between atoms: _338  and  _339
REMARK  132  A    between atoms: _342  and  _344
REMARK  133  A    between atoms: _344  and  _345
REMARK  134  A    between atoms: _344  and  _347
REMARK  135  A    between atoms: _347  and  _348
REMARK  136  A    between atoms: _353  and  _355
REMARK  137  A    between atoms: _355  and  _356
REMARK  138  A    between atoms: _355  and  _358
REMARK  139  A    between atoms: _358  and  _359
REMARK  140  A    between atoms: _359  and  _360
REMARK  141  A    between atoms: _360  and  _361
REMARK  142  A    between atoms: _361  and  _362
REMARK  143  A    between atoms: _366  and  _368
REMARK  144  A    between atoms: _368  and  _369
REMARK  145  A    between atoms: _368  and  _371
REMARK  146  A    between atoms: _371  and  _372
REMARK  147  A    between atoms: _377  and  _379
REMARK  148  A    between atoms: _379  and  _380
REMARK  149  A    between atoms: _382  and  _384
REMARK  150  A    between atoms: _384  and  _385
REMARK  151  A    between atoms: _384  and  _387
REMARK  152  A    between atoms: _387  and  _388
REMARK  153  A    between atoms: _391  and  _393
REMARK  154  A    between atoms: _393  and  _394
REMARK  155  A    between atoms: _393  and  _396
REMARK  156  A    between atoms: _396  and  _397
REMARK  157  A    between atoms: _397  and  _398
REMARK  158  A    between atoms: _398  and  _399
REMARK  159  A    between atoms: _399  and  _400
REMARK  160  A    between atoms: _404  and  _406
REMARK  161  A    between atoms: _406  and  _407
REMARK  162  A    between atoms: _406  and  _409
REMARK  163  A    between atoms: _409  and  _410
REMARK  164  A    between atoms: _410  and  _411
REMARK  165  A    between atoms: _411  and  _412
REMARK  166  A    between atoms: _421  and  _423
REMARK  167  A    between atoms: _423  and  _424
REMARK  168  A    between atoms: _423  and  _426
REMARK  169  A    between atoms: _426  and  _427
REMARK  170  A    between atoms: _432  and  _433
REMARK  171  A    between atoms: _435  and  _437
REMARK  172  A    between atoms: _437  and  _438
REMARK  173  A    between atoms: _437  and  _440
REMARK  174  A    between atoms: _440  and  _441
REMARK  175  A    between atoms: _441  and  _442
REMARK  176  A    between atoms: _442  and  _443
REMARK  177  A    between atoms: _443  and  _444
REMARK  178  A    between atoms: _448  and  _450
REMARK  179  A    between atoms: _450  and  _451
REMARK  180  A    between atoms: _450  and  _453
REMARK  181  A    between atoms: _453  and  _454
REMARK  182  A    between atoms: _456  and  _458
REMARK  183  A    between atoms: _458  and  _459
REMARK  184  A    between atoms: _458  and  _461
REMARK  185  A    between atoms: _461  and  _462
REMARK  186  A    between atoms: _465  and  _467
REMARK  187  A    between atoms: _467  and  _468
REMARK  188  A    between atoms: _467  and  _470
REMARK  189  A    between atoms: _470  and  _471
REMARK  190  A    between atoms: _471  and  _472
REMARK  191  A    between atoms: _475  and  _477
REMARK  192  A    between atoms: _477  and  _478
REMARK  193  A    between atoms: _481  and  _483
REMARK  194  A    between atoms: _483  and  _484
REMARK  195  A    between atoms: _483  and  _486
REMARK  196  A    between atoms: _486  and  _487
REMARK  197  A    between atoms: _489  and  _491
REMARK  198  A    between atoms: _491  and  _492
REMARK  199  A    between atoms: _494  and  _496
REMARK  200  A    between atoms: _496  and  _497
REMARK  201  A    between atoms: _496  and  _499
REMARK  202  A    between atoms: _499  and  _500
REMARK  203  A    between atoms: _503  and  _505
REMARK  204  A    between atoms: _505  and  _506
REMARK  205  A    between atoms: _508  and  _510
REMARK  206  A    between atoms: _510  and  _511
REMARK  207  A    between atoms: _510  and  _513
REMARK  208  A    between atoms: _513  and  _514
REMARK  209  A    between atoms: _519  and  _521
REMARK  210  A    between atoms: _521  and  _522
REMARK  211  A    between atoms: _521  and  _524
REMARK  212  A    between atoms: _524  and  _525
REMARK  213  A    between atoms: _525  and  _526
REMARK  214  A    between atoms: _533  and  _534
REMARK  215  A    between atoms: _534  and  _550
REMARK  216  A    between atoms: _535  and  _537
REMARK  217  A    between atoms: _537  and  _538
REMARK  218  A    between atoms: _538  and  _539
REMARK  219  A    between atoms: _543  and  _545
REMARK  220  A    between atoms: _545  and  _546
REMARK  221  A    between atoms: _545  and  _553
REMARK  222  A    between atoms: _546  and  _547
REMARK  223  A    between atoms: _547  and  _548
REMARK  224  A    between atoms: _548  and  _549
REMARK  225  A    between atoms: _549  and  _550
REMARK  226  A    between atoms: _555  and  _557
REMARK  227  A    between atoms: _557  and  _558
REMARK  228  A    between atoms: _557  and  _560
REMARK  229  A    between atoms: _560  and  _561
REMARK  230  A    between atoms: _564  and  _566
REMARK  231  A    between atoms: _566  and  _567
REMARK  232  A    between atoms: _569  and  _571
REMARK  233  A    between atoms: _571  and  _572
REMARK  234  A    between atoms: _575  and  _577
REMARK  235  A    between atoms: _577  and  _578
REMARK  236  A    between atoms: _577  and  _580
REMARK  237  A    between atoms: _580  and  _581
REMARK  238  A    between atoms: _586  and  _587
REMARK                            x       y       z     vdW  Elec       q    Type
REMARK                         _______ _______ _______ _____ _____    ______ ____
ROOT
ATOM      1  O   HOH     1      35.967  24.211  37.848  0.00  0.00    +0.000 OA
ENDROOT
TORSDOF 0
REMARK  Name = ../refined-set-2016/3l7b/3l7b_pocket.pdb
REMARK  238 active torsions:
REMARK  status: ('A' for Active; 'I' for Inactive)
REMARK    1  A    between atoms: _1  and  _3
REMARK    2  A    between atoms: _3  and  _4
REMARK    3  A    between atoms: _3  and  _6
REMARK    4  A    between atoms: _6  and  _7
REMARK    5  A    between atoms: _12  and  _13
REMARK    6  A    between atoms: _15  and  _17
REMARK    7  A    between atoms: _17  and  _18
REMARK    8  A    between atoms: _17  and  _20
REMARK    9  A    between atoms: _20  and  _21
REMARK   10  A    between atoms: _21  and  _22
REMARK   11  A    between atoms: _25  and  _27
REMARK   12  A    between atoms: _27  and  _28
REMARK   13  A    between atoms: _27  and  _30
REMARK   14  A    between atoms: _30  and  _31
REMARK   15  A    between atoms: _36  and  _37
REMARK   16  A    between atoms: _39  and  _41
REMARK   17  A    between atoms: _41  and  _42
REMARK   18  A    between atoms: _41  and  _44
REMARK   19  A    between atoms: _44  and  _45
REMARK   20  A    between atoms: _50  and  _52
REMARK   21  A    between atoms: _52  and  _53
REMARK   22  A    between atoms: _55  and  _57
REMARK   23  A    between atoms: _57  and  _58
REMARK   24  A    between atoms: _60  and  _62
REMARK   25  A    between atoms: _62  and  _63
REMARK   26  A    between atoms: _62  and  _65
REMARK   27  A    between atoms: _65  and  _66
REMARK   28  A    between atoms: _69  and  _71
REMARK   29  A    between atoms: _71  and  _72
REMARK   30  A    between atoms: _74  and  _76
REMARK   31  A    between atoms: _76  and  _77
REMARK   32  A    between atoms: _76  and  _79
REMARK   33  A    between atoms: _80  and  _81
REMARK   34  A    between atoms: _81  and  _82
REMARK   35  A    between atoms: _91  and  _93
REMARK   36  A    between atoms: _93  and  _94
REMARK   37  A    between atoms: _93  and  _96
REMARK   38  A    between atoms: _96  and  _97
REMARK   39  A    between atoms: _100  and  _102
REMARK   40  A    between atoms: _102  and  _103
REMARK   41  A    between atoms: _106  and  _108
REMARK   42  A    between atoms: _108  and  _109
REMARK   43  A    between atoms: _108  and  _111
REMARK   44  A    between atoms: _111  and  _112
REMARK   45  A    between atoms: _118  and  _120
REMARK   46  A    between atoms: _120  and  _121
REMARK   47  A    between atoms: _120  and  _123
REMARK   48  A    between atoms: _123  and  _124
REMARK   49  A    between atoms: _129  and  _131
REMARK   50  A    between atoms: _131  and  _132
REMARK   51  A    between atoms: _131  and  _134
REMARK   52  A    between atoms: _134  and  _135
REMARK   53  A    between atoms: _138  and  _140
REMARK   54  A    between atoms: _140  and  _141
REMARK   55  A    between atoms: _140  and  _143
REMARK   56  A    between atoms: _143  and  _144
REMARK   57  A    between atoms: _149  and  _151
REMARK   58  A    between atoms: _151  and  _152
REMARK   59  A    between atoms: _151  and  _154
REMARK   60  A    between atoms: _154  and  _155
REMARK   61  A    between atoms: _161  and  _163
REMARK   62  A    between atoms: _163  and  _164
REMARK   63  A    between atoms: _163  and  _166
REMARK   64  A    between atoms: _166  and  _167
REMARK   65  A    between atoms: _173  and  _175
REMARK   66  A    between atoms: _175  and  _176
REMARK   67  A    between atoms: _175  and  _178
REMARK   68  A    between atoms: _178  and  _179
REMARK   69  A    between atoms: _179  and  _180
REMARK   70  A    between atoms: _180  and  _181
REMARK   71  A    between atoms: _190  and  _192
REMARK   72  A    between atoms: _192  and  _193
REMARK   73  A    between atoms: _192  and  _195
REMARK   74  A    between atoms: _195  and  _196
REMARK   75  A    between atoms: _201  and  _203
REMARK   76  A    between atoms: _203  and  _204
REMARK   77  A    between atoms: _203  and  _206
REMARK   78  A    between atoms: _206  and  _207
REMARK   79  A    between atoms: _210  and  _212
REMARK   80  A    between atoms: _212  and  _213
REMARK   81  A    between atoms: _212  and  _215
REMARK   82  A    between atoms: _215  and  _216
REMARK   83  A    between atoms: _219  and  _221
REMARK   84  A    between atoms: _221  and  _222
REMARK   85  A    between atoms: _221  and  _224
REMARK   86  A    between atoms: _224  and  _225
REMARK   87  A    between atoms: _230  and  _232
REMARK   88  A    between atoms: _232  and  _233
REMARK   89  A    between atoms: _232  and  _235
REMARK   90  A    between atoms: _235  and  _236
REMARK   91  A    between atoms: _239  and  _241
REMARK   92  A    between atoms: _241  and  _242
REMARK   93  A    between atoms: _241  and  _244
REMARK   94  A    between atoms: _244  and  _245
REMARK   95  A    between atoms: _250  and  _252
REMARK   96  A    between atoms: _252  and  _253
REMARK   97  A    between atoms: _252  and  _255
REMARK   98  A    between atoms: _255  and  _256
REMARK   99  A    between atoms: _261  and  _263
REMARK  100  A    between atoms: _263  and  _264
REMARK  101  A    between atoms: _263  and  _266
REMARK  102  A    between atoms: _266  and  _267
REMARK  103  A    between atoms: _270  and  _272
REMARK  104  A    between atoms: _272  and  _273
REMARK  105  A    between atoms: _272  and  _275
REMARK  106  A    between atoms: _278  and  _280
REMARK  107  A    between atoms: _280  and  _281
REMARK  108  A    between atoms: _280  and  _283
REMARK  109  A    between atoms: _283  and  _284
REMARK  110  A    between atoms: _287  and  _289
REMARK  111  A    between atoms: _289  and  _290
REMARK  112  A    between atoms: _293  and  _295
REMARK  113  A    between atoms: _295  and  _296
REMARK  114  A    between atoms: _295  and  _298
REMARK  115  A    between atoms: _298  and  _299
REMARK  116  A    between atoms: _302  and  _304
REMARK  117  A    between atoms: _304  and  _305
REMARK  118  A    between atoms: _304  and  _307
REMARK  119  A    between atoms: _307  and  _308
REMARK  120  A    between atoms: _308  and  _309
REMARK  121  A    between atoms: _312  and  _314
REMARK  122  A    between atoms: _314  and  _315
REMARK  123  A    between atoms: _314  and  _317
REMARK  124  A    between atoms: _317  and  _318
REMARK  125  A    between atoms: _323  and  _325
REMARK  126  A    between atoms: _325  and  _326
REMARK  127  A    between atoms: _328  and  _330
REMARK  128  A    between atoms: _330  and  _331
REMARK  129  A    between atoms: _330  and  _333
REMARK  130  A    between atoms: _336  and  _338
REMARK  131  A    between atoms: _338  and  _339
REMARK  132  A    between atoms: _342  and  _344
REMARK  133  A    between atoms: _344  and  _345
REMARK  134  A    between atoms: _344  and  _347
REMARK  135  A    between atoms: _347  and  _348
REMARK  136  A    between atoms: _353  and  _355
REMARK  137  A    between atoms: _355  and  _356
REMARK  138  A    between atoms: _355  and  _358
REMARK  139  A    between atoms: _358  and  _359
REMARK  140  A    between atoms: _359  and  _360
REMARK  141  A    between atoms: _360  and  _361
REMARK  142  A    between atoms: _361  and  _362
REMARK  143  A    between atoms: _366  and  _368
REMARK  144  A    between atoms: _368  and  _369
REMARK  145  A    between atoms: _368  and  _371
REMARK  146  A    between atoms: _371  and  _372
REMARK  147  A    between atoms: _377  and  _379
REMARK  148  A    between atoms: _379  and  _380
REMARK  149  A    between atoms: _382  and  _384
REMARK  150  A    between atoms: _384  and  _385
REMARK  151  A    between atoms: _384  and  _387
REMARK  152  A    between atoms: _387  and  _388
REMARK  153  A    between atoms: _391  and  _393
REMARK  154  A    between atoms: _393  and  _394
REMARK  155  A    between atoms: _393  and  _396
REMARK  156  A    between atoms: _396  and  _397
REMARK  157  A    between atoms: _397  and  _398
REMARK  158  A    between atoms: _398  and  _399
REMARK  159  A    between atoms: _399  and  _400
REMARK  160  A    between atoms: _404  and  _406
REMARK  161  A    between atoms: _406  and  _407
REMARK  162  A    between atoms: _406  and  _409
REMARK  163  A    between atoms: _409  and  _410
REMARK  164  A    between atoms: _410  and  _411
REMARK  165  A    between atoms: _411  and  _412
REMARK  166  A    between atoms: _421  and  _423
REMARK  167  A    between atoms: _423  and  _424
REMARK  168  A    between atoms: _423  and  _426
REMARK  169  A    between atoms: _426  and  _427
REMARK  170  A    between atoms: _432  and  _433
REMARK  171  A    between atoms: _435  and  _437
REMARK  172  A    between atoms: _437  and  _438
REMARK  173  A    between atoms: _437  and  _440
REMARK  174  A    between atoms: _440  and  _441
REMARK  175  A    between atoms: _441  and  _442
REMARK  176  A    between atoms: _442  and  _443
REMARK  177  A    between atoms: _443  and  _444
REMARK  178  A    between atoms: _448  and  _450
REMARK  179  A    between atoms: _450  and  _451
REMARK  180  A    between atoms: _450  and  _453
REMARK  181  A    between atoms: _453  and  _454
REMARK  182  A    between atoms: _456  and  _458
REMARK  183  A    between atoms: _458  and  _459
REMARK  184  A    between atoms: _458  and  _461
REMARK  185  A    between atoms: _461  and  _462
REMARK  186  A    between atoms: _465  and  _467
REMARK  187  A    between atoms: _467  and  _468
REMARK  188  A    between atoms: _467  and  _470
REMARK  189  A    between atoms: _470  and  _471
REMARK  190  A    between atoms: _471  and  _472
REMARK  191  A    between atoms: _475  and  _477
REMARK  192  A    between atoms: _477  and  _478
REMARK  193  A    between atoms: _481  and  _483
REMARK  194  A    between atoms: _483  and  _484
REMARK  195  A    between atoms: _483  and  _486
REMARK  196  A    between atoms: _486  and  _487
REMARK  197  A    between atoms: _489  and  _491
REMARK  198  A    between atoms: _491  and  _492
REMARK  199  A    between atoms: _494  and  _496
REMARK  200  A    between atoms: _496  and  _497
REMARK  201  A    between atoms: _496  and  _499
REMARK  202  A    between atoms: _499  and  _500
REMARK  203  A    between atoms: _503  and  _505
REMARK  204  A    between atoms: _505  and  _506
REMARK  205  A    between atoms: _508  and  _510
REMARK  206  A    between atoms: _510  and  _511
REMARK  207  A    between atoms: _510  and  _513
REMARK  208  A    between atoms: _513  and  _514
REMARK  209  A    between atoms: _519  and  _521
REMARK  210  A    between atoms: _521  and  _522
REMARK  211  A    between atoms: _521  and  _524
REMARK  212  A    between atoms: _524  and  _525
REMARK  213  A    between atoms: _525  and  _526
REMARK  214  A    between atoms: _533  and  _534
REMARK  215  A    between atoms: _534  and  _550
REMARK  216  A    between atoms: _535  and  _537
REMARK  217  A    between atoms: _537  and  _538
REMARK  218  A    between atoms: _538  and  _539
REMARK  219  A    between atoms: _543  and  _545
REMARK  220  A    between atoms: _545  and  _546
REMARK  221  A    between atoms: _545  and  _553
REMARK  222  A    between atoms: _546  and  _547
REMARK  223  A    between atoms: _547  and  _548
REMARK  224  A    between atoms: _548  and  _549
REMARK  225  A    between atoms: _549  and  _550
REMARK  226  A    between atoms: _555  and  _557
REMARK  227  A    between atoms: _557  and  _558
REMARK  228  A    between atoms: _557  and  _560
REMARK  229  A    between atoms: _560  and  _561
REMARK  230  A    between atoms: _564  and  _566
REMARK  231  A    between atoms: _566  and  _567
REMARK  232  A    between atoms: _569  and  _571
REMARK  233  A    between atoms: _571  and  _572
REMARK  234  A    between atoms: _575  and  _577
REMARK  235  A    between atoms: _577  and  _578
REMARK  236  A    between atoms: _577  and  _580
REMARK  237  A    between atoms: _580  and  _581
REMARK  238  A    between atoms: _586  and  _587
REMARK                            x       y       z     vdW  Elec       q    Type
REMARK                         _______ _______ _______ _____ _____    ______ ____
ROOT
ATOM      1  O   HOH     1      43.156  20.614  30.520  0.00  0.00    +0.000 OA
ENDROOT
TORSDOF 0
REMARK  Name = ../refined-set-2016/3l7b/3l7b_pocket.pdb
REMARK  238 active torsions:
REMARK  status: ('A' for Active; 'I' for Inactive)
REMARK    1  A    between atoms: _1  and  _3
REMARK    2  A    between atoms: _3  and  _4
REMARK    3  A    between atoms: _3  and  _6
REMARK    4  A    between atoms: _6  and  _7
REMARK    5  A    between atoms: _12  and  _13
REMARK    6  A    between atoms: _15  and  _17
REMARK    7  A    between atoms: _17  and  _18
REMARK    8  A    between atoms: _17  and  _20
REMARK    9  A    between atoms: _20  and  _21
REMARK   10  A    between atoms: _21  and  _22
REMARK   11  A    between atoms: _25  and  _27
REMARK   12  A    between atoms: _27  and  _28
REMARK   13  A    between atoms: _27  and  _30
REMARK   14  A    between atoms: _30  and  _31
REMARK   15  A    between atoms: _36  and  _37
REMARK   16  A    between atoms: _39  and  _41
REMARK   17  A    between atoms: _41  and  _42
REMARK   18  A    between atoms: _41  and  _44
REMARK   19  A    between atoms: _44  and  _45
REMARK   20  A    between atoms: _50  and  _52
REMARK   21  A    between atoms: _52  and  _53
REMARK   22  A    between atoms: _55  and  _57
REMARK   23  A    between atoms: _57  and  _58
REMARK   24  A    between atoms: _60  and  _62
REMARK   25  A    between atoms: _62  and  _63
REMARK   26  A    between atoms: _62  and  _65
REMARK   27  A    between atoms: _65  and  _66
REMARK   28  A    between atoms: _69  and  _71
REMARK   29  A    between atoms: _71  and  _72
REMARK   30  A    between atoms: _74  and  _76
REMARK   31  A    between atoms: _76  and  _77
REMARK   32  A    between atoms: _76  and  _79
REMARK   33  A    between atoms: _80  and  _81
REMARK   34  A    between atoms: _81  and  _82
REMARK   35  A    between atoms: _91  and  _93
REMARK   36  A    between atoms: _93  and  _94
REMARK   37  A    between atoms: _93  and  _96
REMARK   38  A    between atoms: _96  and  _97
REMARK   39  A    between atoms: _100  and  _102
REMARK   40  A    between atoms: _102  and  _103
REMARK   41  A    between atoms: _106  and  _108
REMARK   42  A    between atoms: _108  and  _109
REMARK   43  A    between atoms: _108  and  _111
REMARK   44  A    between atoms: _111  and  _112
REMARK   45  A    between atoms: _118  and  _120
REMARK   46  A    between atoms: _120  and  _121
REMARK   47  A    between atoms: _120  and  _123
REMARK   48  A    between atoms: _123  and  _124
REMARK   49  A    between atoms: _129  and  _131
REMARK   50  A    between atoms: _131  and  _132
REMARK   51  A    between atoms: _131  and  _134
REMARK   52  A    between atoms: _134  and  _135
REMARK   53  A    between atoms: _138  and  _140
REMARK   54  A    between atoms: _140  and  _141
REMARK   55  A    between atoms: _140  and  _143
REMARK   56  A    between atoms: _143  and  _144
REMARK   57  A    between atoms: _149  and  _151
REMARK   58  A    between atoms: _151  and  _152
REMARK   59  A    between atoms: _151  and  _154
REMARK   60  A    between atoms: _154  and  _155
REMARK   61  A    between atoms: _161  and  _163
REMARK   62  A    between atoms: _163  and  _164
REMARK   63  A    between atoms: _163  and  _166
REMARK   64  A    between atoms: _166  and  _167
REMARK   65  A    between atoms: _173  and  _175
REMARK   66  A    between atoms: _175  and  _176
REMARK   67  A    between atoms: _175  and  _178
REMARK   68  A    between atoms: _178  and  _179
REMARK   69  A    between atoms: _179  and  _180
REMARK   70  A    between atoms: _180  and  _181
REMARK   71  A    between atoms: _190  and  _192
REMARK   72  A    between atoms: _192  and  _193
REMARK   73  A    between atoms: _192  and  _195
REMARK   74  A    between atoms: _195  and  _196
REMARK   75  A    between atoms: _201  and  _203
REMARK   76  A    between atoms: _203  and  _204
REMARK   77  A    between atoms: _203  and  _206
REMARK   78  A    between atoms: _206  and  _207
REMARK   79  A    between atoms: _210  and  _212
REMARK   80  A    between atoms: _212  and  _213
REMARK   81  A    between atoms: _212  and  _215
REMARK   82  A    between atoms: _215  and  _216
REMARK   83  A    between atoms: _219  and  _221
REMARK   84  A    between atoms: _221  and  _222
REMARK   85  A    between atoms: _221  and  _224
REMARK   86  A    between atoms: _224  and  _225
REMARK   87  A    between atoms: _230  and  _232
REMARK   88  A    between atoms: _232  and  _233
REMARK   89  A    between atoms: _232  and  _235
REMARK   90  A    between atoms: _235  and  _236
REMARK   91  A    between atoms: _239  and  _241
REMARK   92  A    between atoms: _241  and  _242
REMARK   93  A    between atoms: _241  and  _244
REMARK   94  A    between atoms: _244  and  _245
REMARK   95  A    between atoms: _250  and  _252
REMARK   96  A    between atoms: _252  and  _253
REMARK   97  A    between atoms: _252  and  _255
REMARK   98  A    between atoms: _255  and  _256
REMARK   99  A    between atoms: _261  and  _263
REMARK  100  A    between atoms: _263  and  _264
REMARK  101  A    between atoms: _263  and  _266
REMARK  102  A    between atoms: _266  and  _267
REMARK  103  A    between atoms: _270  and  _272
REMARK  104  A    between atoms: _272  and  _273
REMARK  105  A    between atoms: _272  and  _275
REMARK  106  A    between atoms: _278  and  _280
REMARK  107  A    between atoms: _280  and  _281
REMARK  108  A    between atoms: _280  and  _283
REMARK  109  A    between atoms: _283  and  _284
REMARK  110  A    between atoms: _287  and  _289
REMARK  111  A    between atoms: _289  and  _290
REMARK  112  A    between atoms: _293  and  _295
REMARK  113  A    between atoms: _295  and  _296
REMARK  114  A    between atoms: _295  and  _298
REMARK  115  A    between atoms: _298  and  _299
REMARK  116  A    between atoms: _302  and  _304
REMARK  117  A    between atoms: _304  and  _305
REMARK  118  A    between atoms: _304  and  _307
REMARK  119  A    between atoms: _307  and  _308
REMARK  120  A    between atoms: _308  and  _309
REMARK  121  A    between atoms: _312  and  _314
REMARK  122  A    between atoms: _314  and  _315
REMARK  123  A    between atoms: _314  and  _317
REMARK  124  A    between atoms: _317  and  _318
REMARK  125  A    between atoms: _323  and  _325
REMARK  126  A    between atoms: _325  and  _326
REMARK  127  A    between atoms: _328  and  _330
REMARK  128  A    between atoms: _330  and  _331
REMARK  129  A    between atoms: _330  and  _333
REMARK  130  A    between atoms: _336  and  _338
REMARK  131  A    between atoms: _338  and  _339
REMARK  132  A    between atoms: _342  and  _344
REMARK  133  A    between atoms: _344  and  _345
REMARK  134  A    between atoms: _344  and  _347
REMARK  135  A    between atoms: _347  and  _348
REMARK  136  A    between atoms: _353  and  _355
REMARK  137  A    between atoms: _355  and  _356
REMARK  138  A    between atoms: _355  and  _358
REMARK  139  A    between atoms: _358  and  _359
REMARK  140  A    between atoms: _359  and  _360
REMARK  141  A    between atoms: _360  and  _361
REMARK  142  A    between atoms: _361  and  _362
REMARK  143  A    between atoms: _366  and  _368
REMARK  144  A    between atoms: _368  and  _369
REMARK  145  A    between atoms: _368  and  _371
REMARK  146  A    between atoms: _371  and  _372
REMARK  147  A    between atoms: _377  and  _379
REMARK  148  A    between atoms: _379  and  _380
REMARK  149  A    between atoms: _382  and  _384
REMARK  150  A    between atoms: _384  and  _385
REMARK  151  A    between atoms: _384  and  _387
REMARK  152  A    between atoms: _387  and  _388
REMARK  153  A    between atoms: _391  and  _393
REMARK  154  A    between atoms: _393  and  _394
REMARK  155  A    between atoms: _393  and  _396
REMARK  156  A    between atoms: _396  and  _397
REMARK  157  A    between atoms: _397  and  _398
REMARK  158  A    between atoms: _398  and  _399
REMARK  159  A    between atoms: _399  and  _400
REMARK  160  A    between atoms: _404  and  _406
REMARK  161  A    between atoms: _406  and  _407
REMARK  162  A    between atoms: _406  and  _409
REMARK  163  A    between atoms: _409  and  _410
REMARK  164  A    between atoms: _410  and  _411
REMARK  165  A    between atoms: _411  and  _412
REMARK  166  A    between atoms: _421  and  _423
REMARK  167  A    between atoms: _423  and  _424
REMARK  168  A    between atoms: _423  and  _426
REMARK  169  A    between atoms: _426  and  _427
REMARK  170  A    between atoms: _432  and  _433
REMARK  171  A    between atoms: _435  and  _437
REMARK  172  A    between atoms: _437  and  _438
REMARK  173  A    between atoms: _437  and  _440
REMARK  174  A    between atoms: _440  and  _441
REMARK  175  A    between atoms: _441  and  _442
REMARK  176  A    between atoms: _442  and  _443
REMARK  177  A    between atoms: _443  and  _444
REMARK  178  A    between atoms: _448  and  _450
REMARK  179  A    between atoms: _450  and  _451
REMARK  180  A    between atoms: _450  and  _453
REMARK  181  A    between atoms: _453  and  _454
REMARK  182  A    between atoms: _456  and  _458
REMARK  183  A    between atoms: _458  and  _459
REMARK  184  A    between atoms: _458  and  _461
REMARK  185  A    between atoms: _461  and  _462
REMARK  186  A    between atoms: _465  and  _467
REMARK  187  A    between atoms: _467  and  _468
REMARK  188  A    between atoms: _467  and  _470
REMARK  189  A    between atoms: _470  and  _471
REMARK  190  A    between atoms: _471  and  _472
REMARK  191  A    between atoms: _475  and  _477
REMARK  192  A    between atoms: _477  and  _478
REMARK  193  A    between atoms: _481  and  _483
REMARK  194  A    between atoms: _483  and  _484
REMARK  195  A    between atoms: _483  and  _486
REMARK  196  A    between atoms: _486  and  _487
REMARK  197  A    between atoms: _489  and  _491
REMARK  198  A    between atoms: _491  and  _492
REMARK  199  A    between atoms: _494  and  _496
REMARK  200  A    between atoms: _496  and  _497
REMARK  201  A    between atoms: _496  and  _499
REMARK  202  A    between atoms: _499  and  _500
REMARK  203  A    between atoms: _503  and  _505
REMARK  204  A    between atoms: _505  and  _506
REMARK  205  A    between atoms: _508  and  _510
REMARK  206  A    between atoms: _510  and  _511
REMARK  207  A    between atoms: _510  and  _513
REMARK  208  A    between atoms: _513  and  _514
REMARK  209  A    between atoms: _519  and  _521
REMARK  210  A    between atoms: _521  and  _522
REMARK  211  A    between atoms: _521  and  _524
REMARK  212  A    between atoms: _524  and  _525
REMARK  213  A    between atoms: _525  and  _526
REMARK  214  A    between atoms: _533  and  _534
REMARK  215  A    between atoms: _534  and  _550
REMARK  216  A    between atoms: _535  and  _537
REMARK  217  A    between atoms: _537  and  _538
REMARK  218  A    between atoms: _538  and  _539
REMARK  219  A    between atoms: _543  and  _545
REMARK  220  A    between atoms: _545  and  _546
REMARK  221  A    between atoms: _545  and  _553
REMARK  222  A    between atoms: _546  and  _547
REMARK  223  A    between atoms: _547  and  _548
REMARK  224  A    between atoms: _548  and  _549
REMARK  225  A    between atoms: _549  and  _550
REMARK  226  A    between atoms: _555  and  _557
REMARK  227  A    between atoms: _557  and  _558
REMARK  228  A    between atoms: _557  and  _560
REMARK  229  A    between atoms: _560  and  _561
REMARK  230  A    between atoms: _564  and  _566
REMARK  231  A    between atoms: _566  and  _567
REMARK  232  A    between atoms: _569  and  _571
REMARK  233  A    between atoms: _571  and  _572
REMARK  234  A    between atoms: _575  and  _577
REMARK  235  A    between atoms: _577  and  _578
REMARK  236  A    between atoms: _577  and  _580
REMARK  237  A    between atoms: _580  and  _581
REMARK  238  A    between atoms: _586  and  _587
REMARK                            x       y       z     vdW  Elec       q    Type
REMARK                         _______ _______ _______ _____ _____    ______ ____
ROOT
ATOM      1  O   HOH     1      32.836  25.794  32.621  0.00  0.00    +0.000 OA
ENDROOT
TORSDOF 0
REMARK  Name = ../refined-set-2016/3l7b/3l7b_pocket.pdb
REMARK  238 active torsions:
REMARK  status: ('A' for Active; 'I' for Inactive)
REMARK    1  A    between atoms: _1  and  _3
REMARK    2  A    between atoms: _3  and  _4
REMARK    3  A    between atoms: _3  and  _6
REMARK    4  A    between atoms: _6  and  _7
REMARK    5  A    between atoms: _12  and  _13
REMARK    6  A    between atoms: _15  and  _17
REMARK    7  A    between atoms: _17  and  _18
REMARK    8  A    between atoms: _17  and  _20
REMARK    9  A    between atoms: _20  and  _21
REMARK   10  A    between atoms: _21  and  _22
REMARK   11  A    between atoms: _25  and  _27
REMARK   12  A    between atoms: _27  and  _28
REMARK   13  A    between atoms: _27  and  _30
REMARK   14  A    between atoms: _30  and  _31
REMARK   15  A    between atoms: _36  and  _37
REMARK   16  A    between atoms: _39  and  _41
REMARK   17  A    between atoms: _41  and  _42
REMARK   18  A    between atoms: _41  and  _44
REMARK   19  A    between atoms: _44  and  _45
REMARK   20  A    between atoms: _50  and  _52
REMARK   21  A    between atoms: _52  and  _53
REMARK   22  A    between atoms: _55  and  _57
REMARK   23  A    between atoms: _57  and  _58
REMARK   24  A    between atoms: _60  and  _62
REMARK   25  A    between atoms: _62  and  _63
REMARK   26  A    between atoms: _62  and  _65
REMARK   27  A    between atoms: _65  and  _66
REMARK   28  A    between atoms: _69  and  _71
REMARK   29  A    between atoms: _71  and  _72
REMARK   30  A    between atoms: _74  and  _76
REMARK   31  A    between atoms: _76  and  _77
REMARK   32  A    between atoms: _76  and  _79
REMARK   33  A    between atoms: _80  and  _81
REMARK   34  A    between atoms: _81  and  _82
REMARK   35  A    between atoms: _91  and  _93
REMARK   36  A    between atoms: _93  and  _94
REMARK   37  A    between atoms: _93  and  _96
REMARK   38  A    between atoms: _96  and  _97
REMARK   39  A    between atoms: _100  and  _102
REMARK   40  A    between atoms: _102  and  _103
REMARK   41  A    between atoms: _106  and  _108
REMARK   42  A    between atoms: _108  and  _109
REMARK   43  A    between atoms: _108  and  _111
REMARK   44  A    between atoms: _111  and  _112
REMARK   45  A    between atoms: _118  and  _120
REMARK   46  A    between atoms: _120  and  _121
REMARK   47  A    between atoms: _120  and  _123
REMARK   48  A    between atoms: _123  and  _124
REMARK   49  A    between atoms: _129  and  _131
REMARK   50  A    between atoms: _131  and  _132
REMARK   51  A    between atoms: _131  and  _134
REMARK   52  A    between atoms: _134  and  _135
REMARK   53  A    between atoms: _138  and  _140
REMARK   54  A    between atoms: _140  and  _141
REMARK   55  A    between atoms: _140  and  _143
REMARK   56  A    between atoms: _143  and  _144
REMARK   57  A    between atoms: _149  and  _151
REMARK   58  A    between atoms: _151  and  _152
REMARK   59  A    between atoms: _151  and  _154
REMARK   60  A    between atoms: _154  and  _155
REMARK   61  A    between atoms: _161  and  _163
REMARK   62  A    between atoms: _163  and  _164
REMARK   63  A    between atoms: _163  and  _166
REMARK   64  A    between atoms: _166  and  _167
REMARK   65  A    between atoms: _173  and  _175
REMARK   66  A    between atoms: _175  and  _176
REMARK   67  A    between atoms: _175  and  _178
REMARK   68  A    between atoms: _178  and  _179
REMARK   69  A    between atoms: _179  and  _180
REMARK   70  A    between atoms: _180  and  _181
REMARK   71  A    between atoms: _190  and  _192
REMARK   72  A    between atoms: _192  and  _193
REMARK   73  A    between atoms: _192  and  _195
REMARK   74  A    between atoms: _195  and  _196
REMARK   75  A    between atoms: _201  and  _203
REMARK   76  A    between atoms: _203  and  _204
REMARK   77  A    between atoms: _203  and  _206
REMARK   78  A    between atoms: _206  and  _207
REMARK   79  A    between atoms: _210  and  _212
REMARK   80  A    between atoms: _212  and  _213
REMARK   81  A    between atoms: _212  and  _215
REMARK   82  A    between atoms: _215  and  _216
REMARK   83  A    between atoms: _219  and  _221
REMARK   84  A    between atoms: _221  and  _222
REMARK   85  A    between atoms: _221  and  _224
REMARK   86  A    between atoms: _224  and  _225
REMARK   87  A    between atoms: _230  and  _232
REMARK   88  A    between atoms: _232  and  _233
REMARK   89  A    between atoms: _232  and  _235
REMARK   90  A    between atoms: _235  and  _236
REMARK   91  A    between atoms: _239  and  _241
REMARK   92  A    between atoms: _241  and  _242
REMARK   93  A    between atoms: _241  and  _244
REMARK   94  A    between atoms: _244  and  _245
REMARK   95  A    between atoms: _250  and  _252
REMARK   96  A    between atoms: _252  and  _253
REMARK   97  A    between atoms: _252  and  _255
REMARK   98  A    between atoms: _255  and  _256
REMARK   99  A    between atoms: _261  and  _263
REMARK  100  A    between atoms: _263  and  _264
REMARK  101  A    between atoms: _263  and  _266
REMARK  102  A    between atoms: _266  and  _267
REMARK  103  A    between atoms: _270  and  _272
REMARK  104  A    between atoms: _272  and  _273
REMARK  105  A    between atoms: _272  and  _275
REMARK  106  A    between atoms: _278  and  _280
REMARK  107  A    between atoms: _280  and  _281
REMARK  108  A    between atoms: _280  and  _283
REMARK  109  A    between atoms: _283  and  _284
REMARK  110  A    between atoms: _287  and  _289
REMARK  111  A    between atoms: _289  and  _290
REMARK  112  A    between atoms: _293  and  _295
REMARK  113  A    between atoms: _295  and  _296
REMARK  114  A    between atoms: _295  and  _298
REMARK  115  A    between atoms: _298  and  _299
REMARK  116  A    between atoms: _302  and  _304
REMARK  117  A    between atoms: _304  and  _305
REMARK  118  A    between atoms: _304  and  _307
REMARK  119  A    between atoms: _307  and  _308
REMARK  120  A    between atoms: _308  and  _309
REMARK  121  A    between atoms: _312  and  _314
REMARK  122  A    between atoms: _314  and  _315
REMARK  123  A    between atoms: _314  and  _317
REMARK  124  A    between atoms: _317  and  _318
REMARK  125  A    between atoms: _323  and  _325
REMARK  126  A    between atoms: _325  and  _326
REMARK  127  A    between atoms: _328  and  _330
REMARK  128  A    between atoms: _330  and  _331
REMARK  129  A    between atoms: _330  and  _333
REMARK  130  A    between atoms: _336  and  _338
REMARK  131  A    between atoms: _338  and  _339
REMARK  132  A    between atoms: _342  and  _344
REMARK  133  A    between atoms: _344  and  _345
REMARK  134  A    between atoms: _344  and  _347
REMARK  135  A    between atoms: _347  and  _348
REMARK  136  A    between atoms: _353  and  _355
REMARK  137  A    between atoms: _355  and  _356
REMARK  138  A    between atoms: _355  and  _358
REMARK  139  A    between atoms: _358  and  _359
REMARK  140  A    between atoms: _359  and  _360
REMARK  141  A    between atoms: _360  and  _361
REMARK  142  A    between atoms: _361  and  _362
REMARK  143  A    between atoms: _366  and  _368
REMARK  144  A    between atoms: _368  and  _369
REMARK  145  A    between atoms: _368  and  _371
REMARK  146  A    between atoms: _371  and  _372
REMARK  147  A    between atoms: _377  and  _379
REMARK  148  A    between atoms: _379  and  _380
REMARK  149  A    between atoms: _382  and  _384
REMARK  150  A    between atoms: _384  and  _385
REMARK  151  A    between atoms: _384  and  _387
REMARK  152  A    between atoms: _387  and  _388
REMARK  153  A    between atoms: _391  and  _393
REMARK  154  A    between atoms: _393  and  _394
REMARK  155  A    between atoms: _393  and  _396
REMARK  156  A    between atoms: _396  and  _397
REMARK  157  A    between atoms: _397  and  _398
REMARK  158  A    between atoms: _398  and  _399
REMARK  159  A    between atoms: _399  and  _400
REMARK  160  A    between atoms: _404  and  _406
REMARK  161  A    between atoms: _406  and  _407
REMARK  162  A    between atoms: _406  and  _409
REMARK  163  A    between atoms: _409  and  _410
REMARK  164  A    between atoms: _410  and  _411
REMARK  165  A    between atoms: _411  and  _412
REMARK  166  A    between atoms: _421  and  _423
REMARK  167  A    between atoms: _423  and  _424
REMARK  168  A    between atoms: _423  and  _426
REMARK  169  A    between atoms: _426  and  _427
REMARK  170  A    between atoms: _432  and  _433
REMARK  171  A    between atoms: _435  and  _437
REMARK  172  A    between atoms: _437  and  _438
REMARK  173  A    between atoms: _437  and  _440
REMARK  174  A    between atoms: _440  and  _441
REMARK  175  A    between atoms: _441  and  _442
REMARK  176  A    between atoms: _442  and  _443
REMARK  177  A    between atoms: _443  and  _444
REMARK  178  A    between atoms: _448  and  _450
REMARK  179  A    between atoms: _450  and  _451
REMARK  180  A    between atoms: _450  and  _453
REMARK  181  A    between atoms: _453  and  _454
REMARK  182  A    between atoms: _456  and  _458
REMARK  183  A    between atoms: _458  and  _459
REMARK  184  A    between atoms: _458  and  _461
REMARK  185  A    between atoms: _461  and  _462
REMARK  186  A    between atoms: _465  and  _467
REMARK  187  A    between atoms: _467  and  _468
REMARK  188  A    between atoms: _467  and  _470
REMARK  189  A    between atoms: _470  and  _471
REMARK  190  A    between atoms: _471  and  _472
REMARK  191  A    between atoms: _475  and  _477
REMARK  192  A    between atoms: _477  and  _478
REMARK  193  A    between atoms: _481  and  _483
REMARK  194  A    between atoms: _483  and  _484
REMARK  195  A    between atoms: _483  and  _486
REMARK  196  A    between atoms: _486  and  _487
REMARK  197  A    between atoms: _489  and  _491
REMARK  198  A    between atoms: _491  and  _492
REMARK  199  A    between atoms: _494  and  _496
REMARK  200  A    between atoms: _496  and  _497
REMARK  201  A    between atoms: _496  and  _499
REMARK  202  A    between atoms: _499  and  _500
REMARK  203  A    between atoms: _503  and  _505
REMARK  204  A    between atoms: _505  and  _506
REMARK  205  A    between atoms: _508  and  _510
REMARK  206  A    between atoms: _510  and  _511
REMARK  207  A    between atoms: _510  and  _513
REMARK  208  A    between atoms: _513  and  _514
REMARK  209  A    between atoms: _519  and  _521
REMARK  210  A    between atoms: _521  and  _522
REMARK  211  A    between atoms: _521  and  _524
REMARK  212  A    between atoms: _524  and  _525
REMARK  213  A    between atoms: _525  and  _526
REMARK  214  A    between atoms: _533  and  _534
REMARK  215  A    between atoms: _534  and  _550
REMARK  216  A    between atoms: _535  and  _537
REMARK  217  A    between atoms: _537  and  _538
REMARK  218  A    between atoms: _538  and  _539
REMARK  219  A    between atoms: _543  and  _545
REMARK  220  A    between atoms: _545  and  _546
REMARK  221  A    between atoms: _545  and  _553
REMARK  222  A    between atoms: _546  and  _547
REMARK  223  A    between atoms: _547  and  _548
REMARK  224  A    between atoms: _548  and  _549
REMARK  225  A    between atoms: _549  and  _550
REMARK  226  A    between atoms: _555  and  _557
REMARK  227  A    between atoms: _557  and  _558
REMARK  228  A    between atoms: _557  and  _560
REMARK  229  A    between atoms: _560  and  _561
REMARK  230  A    between atoms: _564  and  _566
REMARK  231  A    between atoms: _566  and  _567
REMARK  232  A    between atoms: _569  and  _571
REMARK  233  A    between atoms: _571  and  _572
REMARK  234  A    between atoms: _575  and  _577
REMARK  235  A    between atoms: _577  and  _578
REMARK  236  A    between atoms: _577  and  _580
REMARK  237  A    between atoms: _580  and  _581
REMARK  238  A    between atoms: _586  and  _587
REMARK                            x       y       z     vdW  Elec       q    Type
REMARK                         _______ _______ _______ _____ _____    ______ ____
ROOT
ATOM      1  O   HOH     1      36.318  24.607  24.212  0.00  0.00    +0.000 OA
ENDROOT
TORSDOF 0
REMARK  Name = ../refined-set-2016/3l7b/3l7b_pocket.pdb
REMARK  238 active torsions:
REMARK  status: ('A' for Active; 'I' for Inactive)
REMARK    1  A    between atoms: _1  and  _3
REMARK    2  A    between atoms: _3  and  _4
REMARK    3  A    between atoms: _3  and  _6
REMARK    4  A    between atoms: _6  and  _7
REMARK    5  A    between atoms: _12  and  _13
REMARK    6  A    between atoms: _15  and  _17
REMARK    7  A    between atoms: _17  and  _18
REMARK    8  A    between atoms: _17  and  _20
REMARK    9  A    between atoms: _20  and  _21
REMARK   10  A    between atoms: _21  and  _22
REMARK   11  A    between atoms: _25  and  _27
REMARK   12  A    between atoms: _27  and  _28
REMARK   13  A    between atoms: _27  and  _30
REMARK   14  A    between atoms: _30  and  _31
REMARK   15  A    between atoms: _36  and  _37
REMARK   16  A    between atoms: _39  and  _41
REMARK   17  A    between atoms: _41  and  _42
REMARK   18  A    between atoms: _41  and  _44
REMARK   19  A    between atoms: _44  and  _45
REMARK   20  A    between atoms: _50  and  _52
REMARK   21  A    between atoms: _52  and  _53
REMARK   22  A    between atoms: _55  and  _57
REMARK   23  A    between atoms: _57  and  _58
REMARK   24  A    between atoms: _60  and  _62
REMARK   25  A    between atoms: _62  and  _63
REMARK   26  A    between atoms: _62  and  _65
REMARK   27  A    between atoms: _65  and  _66
REMARK   28  A    between atoms: _69  and  _71
REMARK   29  A    between atoms: _71  and  _72
REMARK   30  A    between atoms: _74  and  _76
REMARK   31  A    between atoms: _76  and  _77
REMARK   32  A    between atoms: _76  and  _79
REMARK   33  A    between atoms: _80  and  _81
REMARK   34  A    between atoms: _81  and  _82
REMARK   35  A    between atoms: _91  and  _93
REMARK   36  A    between atoms: _93  and  _94
REMARK   37  A    between atoms: _93  and  _96
REMARK   38  A    between atoms: _96  and  _97
REMARK   39  A    between atoms: _100  and  _102
REMARK   40  A    between atoms: _102  and  _103
REMARK   41  A    between atoms: _106  and  _108
REMARK   42  A    between atoms: _108  and  _109
REMARK   43  A    between atoms: _108  and  _111
REMARK   44  A    between atoms: _111  and  _112
REMARK   45  A    between atoms: _118  and  _120
REMARK   46  A    between atoms: _120  and  _121
REMARK   47  A    between atoms: _120  and  _123
REMARK   48  A    between atoms: _123  and  _124
REMARK   49  A    between atoms: _129  and  _131
REMARK   50  A    between atoms: _131  and  _132
REMARK   51  A    between atoms: _131  and  _134
REMARK   52  A    between atoms: _134  and  _135
REMARK   53  A    between atoms: _138  and  _140
REMARK   54  A    between atoms: _140  and  _141
REMARK   55  A    between atoms: _140  and  _143
REMARK   56  A    between atoms: _143  and  _144
REMARK   57  A    between atoms: _149  and  _151
REMARK   58  A    between atoms: _151  and  _152
REMARK   59  A    between atoms: _151  and  _154
REMARK   60  A    between atoms: _154  and  _155
REMARK   61  A    between atoms: _161  and  _163
REMARK   62  A    between atoms: _163  and  _164
REMARK   63  A    between atoms: _163  and  _166
REMARK   64  A    between atoms: _166  and  _167
REMARK   65  A    between atoms: _173  and  _175
REMARK   66  A    between atoms: _175  and  _176
REMARK   67  A    between atoms: _175  and  _178
REMARK   68  A    between atoms: _178  and  _179
REMARK   69  A    between atoms: _179  and  _180
REMARK   70  A    between atoms: _180  and  _181
REMARK   71  A    between atoms: _190  and  _192
REMARK   72  A    between atoms: _192  and  _193
REMARK   73  A    between atoms: _192  and  _195
REMARK   74  A    between atoms: _195  and  _196
REMARK   75  A    between atoms: _201  and  _203
REMARK   76  A    between atoms: _203  and  _204
REMARK   77  A    between atoms: _203  and  _206
REMARK   78  A    between atoms: _206  and  _207
REMARK   79  A    between atoms: _210  and  _212
REMARK   80  A    between atoms: _212  and  _213
REMARK   81  A    between atoms: _212  and  _215
REMARK   82  A    between atoms: _215  and  _216
REMARK   83  A    between atoms: _219  and  _221
REMARK   84  A    between atoms: _221  and  _222
REMARK   85  A    between atoms: _221  and  _224
REMARK   86  A    between atoms: _224  and  _225
REMARK   87  A    between atoms: _230  and  _232
REMARK   88  A    between atoms: _232  and  _233
REMARK   89  A    between atoms: _232  and  _235
REMARK   90  A    between atoms: _235  and  _236
REMARK   91  A    between atoms: _239  and  _241
REMARK   92  A    between atoms: _241  and  _242
REMARK   93  A    between atoms: _241  and  _244
REMARK   94  A    between atoms: _244  and  _245
REMARK   95  A    between atoms: _250  and  _252
REMARK   96  A    between atoms: _252  and  _253
REMARK   97  A    between atoms: _252  and  _255
REMARK   98  A    between atoms: _255  and  _256
REMARK   99  A    between atoms: _261  and  _263
REMARK  100  A    between atoms: _263  and  _264
REMARK  101  A    between atoms: _263  and  _266
REMARK  102  A    between atoms: _266  and  _267
REMARK  103  A    between atoms: _270  and  _272
REMARK  104  A    between atoms: _272  and  _273
REMARK  105  A    between atoms: _272  and  _275
REMARK  106  A    between atoms: _278  and  _280
REMARK  107  A    between atoms: _280  and  _281
REMARK  108  A    between atoms: _280  and  _283
REMARK  109  A    between atoms: _283  and  _284
REMARK  110  A    between atoms: _287  and  _289
REMARK  111  A    between atoms: _289  and  _290
REMARK  112  A    between atoms: _293  and  _295
REMARK  113  A    between atoms: _295  and  _296
REMARK  114  A    between atoms: _295  and  _298
REMARK  115  A    between atoms: _298  and  _299
REMARK  116  A    between atoms: _302  and  _304
REMARK  117  A    between atoms: _304  and  _305
REMARK  118  A    between atoms: _304  and  _307
REMARK  119  A    between atoms: _307  and  _308
REMARK  120  A    between atoms: _308  and  _309
REMARK  121  A    between atoms: _312  and  _314
REMARK  122  A    between atoms: _314  and  _315
REMARK  123  A    between atoms: _314  and  _317
REMARK  124  A    between atoms: _317  and  _318
REMARK  125  A    between atoms: _323  and  _325
REMARK  126  A    between atoms: _325  and  _326
REMARK  127  A    between atoms: _328  and  _330
REMARK  128  A    between atoms: _330  and  _331
REMARK  129  A    between atoms: _330  and  _333
REMARK  130  A    between atoms: _336  and  _338
REMARK  131  A    between atoms: _338  and  _339
REMARK  132  A    between atoms: _342  and  _344
REMARK  133  A    between atoms: _344  and  _345
REMARK  134  A    between atoms: _344  and  _347
REMARK  135  A    between atoms: _347  and  _348
REMARK  136  A    between atoms: _353  and  _355
REMARK  137  A    between atoms: _355  and  _356
REMARK  138  A    between atoms: _355  and  _358
REMARK  139  A    between atoms: _358  and  _359
REMARK  140  A    between atoms: _359  and  _360
REMARK  141  A    between atoms: _360  and  _361
REMARK  142  A    between atoms: _361  and  _362
REMARK  143  A    between atoms: _366  and  _368
REMARK  144  A    between atoms: _368  and  _369
REMARK  145  A    between atoms: _368  and  _371
REMARK  146  A    between atoms: _371  and  _372
REMARK  147  A    between atoms: _377  and  _379
REMARK  148  A    between atoms: _379  and  _380
REMARK  149  A    between atoms: _382  and  _384
REMARK  150  A    between atoms: _384  and  _385
REMARK  151  A    between atoms: _384  and  _387
REMARK  152  A    between atoms: _387  and  _388
REMARK  153  A    between atoms: _391  and  _393
REMARK  154  A    between atoms: _393  and  _394
REMARK  155  A    between atoms: _393  and  _396
REMARK  156  A    between atoms: _396  and  _397
REMARK  157  A    between atoms: _397  and  _398
REMARK  158  A    between atoms: _398  and  _399
REMARK  159  A    between atoms: _399  and  _400
REMARK  160  A    between atoms: _404  and  _406
REMARK  161  A    between atoms: _406  and  _407
REMARK  162  A    between atoms: _406  and  _409
REMARK  163  A    between atoms: _409  and  _410
REMARK  164  A    between atoms: _410  and  _411
REMARK  165  A    between atoms: _411  and  _412
REMARK  166  A    between atoms: _421  and  _423
REMARK  167  A    between atoms: _423  and  _424
REMARK  168  A    between atoms: _423  and  _426
REMARK  169  A    between atoms: _426  and  _427
REMARK  170  A    between atoms: _432  and  _433
REMARK  171  A    between atoms: _435  and  _437
REMARK  172  A    between atoms: _437  and  _438
REMARK  173  A    between atoms: _437  and  _440
REMARK  174  A    between atoms: _440  and  _441
REMARK  175  A    between atoms: _441  and  _442
REMARK  176  A    between atoms: _442  and  _443
REMARK  177  A    between atoms: _443  and  _444
REMARK  178  A    between atoms: _448  and  _450
REMARK  179  A    between atoms: _450  and  _451
REMARK  180  A    between atoms: _450  and  _453
REMARK  181  A    between atoms: _453  and  _454
REMARK  182  A    between atoms: _456  and  _458
REMARK  183  A    between atoms: _458  and  _459
REMARK  184  A    between atoms: _458  and  _461
REMARK  185  A    between atoms: _461  and  _462
REMARK  186  A    between atoms: _465  and  _467
REMARK  187  A    between atoms: _467  and  _468
REMARK  188  A    between atoms: _467  and  _470
REMARK  189  A    between atoms: _470  and  _471
REMARK  190  A    between atoms: _471  and  _472
REMARK  191  A    between atoms: _475  and  _477
REMARK  192  A    between atoms: _477  and  _478
REMARK  193  A    between atoms: _481  and  _483
REMARK  194  A    between atoms: _483  and  _484
REMARK  195  A    between atoms: _483  and  _486
REMARK  196  A    between atoms: _486  and  _487
REMARK  197  A    between atoms: _489  and  _491
REMARK  198  A    between atoms: _491  and  _492
REMARK  199  A    between atoms: _494  and  _496
REMARK  200  A    between atoms: _496  and  _497
REMARK  201  A    between atoms: _496  and  _499
REMARK  202  A    between atoms: _499  and  _500
REMARK  203  A    between atoms: _503  and  _505
REMARK  204  A    between atoms: _505  and  _506
REMARK  205  A    between atoms: _508  and  _510
REMARK  206  A    between atoms: _510  and  _511
REMARK  207  A    between atoms: _510  and  _513
REMARK  208  A    between atoms: _513  and  _514
REMARK  209  A    between atoms: _519  and  _521
REMARK  210  A    between atoms: _521  and  _522
REMARK  211  A    between atoms: _521  and  _524
REMARK  212  A    between atoms: _524  and  _525
REMARK  213  A    between atoms: _525  and  _526
REMARK  214  A    between atoms: _533  and  _534
REMARK  215  A    between atoms: _534  and  _550
REMARK  216  A    between atoms: _535  and  _537
REMARK  217  A    between atoms: _537  and  _538
REMARK  218  A    between atoms: _538  and  _539
REMARK  219  A    between atoms: _543  and  _545
REMARK  220  A    between atoms: _545  and  _546
REMARK  221  A    between atoms: _545  and  _553
REMARK  222  A    between atoms: _546  and  _547
REMARK  223  A    between atoms: _547  and  _548
REMARK  224  A    between atoms: _548  and  _549
REMARK  225  A    between atoms: _549  and  _550
REMARK  226  A    between atoms: _555  and  _557
REMARK  227  A    between atoms: _557  and  _558
REMARK  228  A    between atoms: _557  and  _560
REMARK  229  A    between atoms: _560  and  _561
REMARK  230  A    between atoms: _564  and  _566
REMARK  231  A    between atoms: _566  and  _567
REMARK  232  A    between atoms: _569  and  _571
REMARK  233  A    between atoms: _571  and  _572
REMARK  234  A    between atoms: _575  and  _577
REMARK  235  A    between atoms: _577  and  _578
REMARK  236  A    between atoms: _577  and  _580
REMARK  237  A    between atoms: _580  and  _581
REMARK  238  A    between atoms: _586  and  _587
REMARK                            x       y       z     vdW  Elec       q    Type
REMARK                         _______ _______ _______ _____ _____    ______ ____
ROOT
ATOM      1  O   HOH     1      39.293  22.985  19.977  0.00  0.00    +0.000 OA
ENDROOT
TORSDOF 0
