REMARK  Name = ../refined-set-2016/2qi4/2qi4_pocket.pdb
REMARK  228 active torsions:
REMARK  status: ('A' for Active; 'I' for Inactive)
REMARK    1  A    between atoms: _1  and  _3
REMARK    2  A    between atoms: _3  and  _4
REMARK    3  A    between atoms: _3  and  _6
REMARK    4  A    between atoms: _6  and  _7
REMARK    5  A    between atoms: _7  and  _8
REMARK    6  A    between atoms: _8  and  _9
REMARK    7  A    between atoms: _18  and  _20
REMARK    8  A    between atoms: _20  and  _21
REMARK    9  A    between atoms: _20  and  _23
REMARK   10  A    between atoms: _23  and  _24
REMARK   11  A    between atoms: _27  and  _29
REMARK   12  A    between atoms: _29  and  _30
REMARK   13  A    between atoms: _29  and  _32
REMARK   14  A    between atoms: _32  and  _33
REMARK   15  A    between atoms: _36  and  _38
REMARK   16  A    between atoms: _38  and  _39
REMARK   17  A    between atoms: _38  and  _41
REMARK   18  A    between atoms: _41  and  _42
REMARK   19  A    between atoms: _45  and  _47
REMARK   20  A    between atoms: _47  and  _48
REMARK   21  A    between atoms: _47  and  _50
REMARK   22  A    between atoms: _50  and  _51
REMARK   23  A    between atoms: _54  and  _56
REMARK   24  A    between atoms: _56  and  _57
REMARK   25  A    between atoms: _59  and  _61
REMARK   26  A    between atoms: _61  and  _62
REMARK   27  A    between atoms: _65  and  _67
REMARK   28  A    between atoms: _67  and  _68
REMARK   29  A    between atoms: _67  and  _70
REMARK   30  A    between atoms: _70  and  _71
REMARK   31  A    between atoms: _74  and  _76
REMARK   32  A    between atoms: _76  and  _77
REMARK   33  A    between atoms: _76  and  _79
REMARK   34  A    between atoms: _79  and  _80
REMARK   35  A    between atoms: _83  and  _85
REMARK   36  A    between atoms: _85  and  _86
REMARK   37  A    between atoms: _85  and  _88
REMARK   38  A    between atoms: _88  and  _89
REMARK   39  A    between atoms: _92  and  _94
REMARK   40  A    between atoms: _94  and  _95
REMARK   41  A    between atoms: _94  and  _97
REMARK   42  A    between atoms: _100  and  _102
REMARK   43  A    between atoms: _102  and  _103
REMARK   44  A    between atoms: _102  and  _105
REMARK   45  A    between atoms: _105  and  _106
REMARK   46  A    between atoms: _106  and  _107
REMARK   47  A    between atoms: _107  and  _108
REMARK   48  A    between atoms: _108  and  _109
REMARK   49  A    between atoms: _113  and  _115
REMARK   50  A    between atoms: _115  and  _116
REMARK   51  A    between atoms: _115  and  _118
REMARK   52  A    between atoms: _118  and  _119
REMARK   53  A    between atoms: _119  and  _120
REMARK   54  A    between atoms: _122  and  _124
REMARK   55  A    between atoms: _124  and  _125
REMARK   56  A    between atoms: _124  and  _127
REMARK   57  A    between atoms: _127  and  _128
REMARK   58  A    between atoms: _131  and  _133
REMARK   59  A    between atoms: _133  and  _134
REMARK   60  A    between atoms: _136  and  _138
REMARK   61  A    between atoms: _138  and  _139
REMARK   62  A    between atoms: _141  and  _143
REMARK   63  A    between atoms: _143  and  _144
REMARK   64  A    between atoms: _143  and  _146
REMARK   65  A    between atoms: _146  and  _147
REMARK   66  A    between atoms: _150  and  _152
REMARK   67  A    between atoms: _152  and  _153
REMARK   68  A    between atoms: _155  and  _157
REMARK   69  A    between atoms: _157  and  _158
REMARK   70  A    between atoms: _160  and  _162
REMARK   71  A    between atoms: _162  and  _163
REMARK   72  A    between atoms: _162  and  _165
REMARK   73  A    between atoms: _165  and  _166
REMARK   74  A    between atoms: _169  and  _171
REMARK   75  A    between atoms: _171  and  _172
REMARK   76  A    between atoms: _171  and  _174
REMARK   77  A    between atoms: _177  and  _179
REMARK   78  A    between atoms: _179  and  _180
REMARK   79  A    between atoms: _179  and  _182
REMARK   80  A    between atoms: _182  and  _183
REMARK   81  A    between atoms: _186  and  _188
REMARK   82  A    between atoms: _188  and  _189
REMARK   83  A    between atoms: _188  and  _191
REMARK   84  A    between atoms: _191  and  _192
REMARK   85  A    between atoms: _196  and  _197
REMARK   86  A    between atoms: _202  and  _204
REMARK   87  A    between atoms: _204  and  _205
REMARK   88  A    between atoms: _204  and  _207
REMARK   89  A    between atoms: _210  and  _212
REMARK   90  A    between atoms: _212  and  _213
REMARK   91  A    between atoms: _212  and  _215
REMARK   92  A    between atoms: _215  and  _216
REMARK   93  A    between atoms: _221  and  _223
REMARK   94  A    between atoms: _223  and  _224
REMARK   95  A    between atoms: _223  and  _226
REMARK   96  A    between atoms: _226  and  _227
REMARK   97  A    between atoms: _230  and  _232
REMARK   98  A    between atoms: _232  and  _233
REMARK   99  A    between atoms: _232  and  _235
REMARK  100  A    between atoms: _235  and  _236
REMARK  101  A    between atoms: _239  and  _241
REMARK  102  A    between atoms: _241  and  _242
REMARK  103  A    between atoms: _244  and  _246
REMARK  104  A    between atoms: _246  and  _247
REMARK  105  A    between atoms: _246  and  _249
REMARK  106  A    between atoms: _249  and  _250
REMARK  107  A    between atoms: _250  and  _251
REMARK  108  A    between atoms: _251  and  _252
REMARK  109  A    between atoms: _261  and  _263
REMARK  110  A    between atoms: _263  and  _264
REMARK  111  A    between atoms: _263  and  _266
REMARK  112  A    between atoms: _266  and  _267
REMARK  113  A    between atoms: _272  and  _274
REMARK  114  A    between atoms: _274  and  _275
REMARK  115  A    between atoms: _274  and  _277
REMARK  116  A    between atoms: _277  and  _278
REMARK  117  A    between atoms: _278  and  _279
REMARK  118  A    between atoms: _279  and  _280
REMARK  119  A    between atoms: _289  and  _291
REMARK  120  A    between atoms: _291  and  _292
REMARK  121  A    between atoms: _291  and  _294
REMARK  122  A    between atoms: _294  and  _295
REMARK  123  A    between atoms: _298  and  _300
REMARK  124  A    between atoms: _300  and  _301
REMARK  125  A    between atoms: _300  and  _303
REMARK  126  A    between atoms: _303  and  _304
REMARK  127  A    between atoms: _307  and  _309
REMARK  128  A    between atoms: _309  and  _310
REMARK  129  A    between atoms: _309  and  _312
REMARK  130  A    between atoms: _312  and  _313
REMARK  131  A    between atoms: _316  and  _318
REMARK  132  A    between atoms: _318  and  _319
REMARK  133  A    between atoms: _318  and  _321
REMARK  134  A    between atoms: _321  and  _322
REMARK  135  A    between atoms: _325  and  _327
REMARK  136  A    between atoms: _327  and  _328
REMARK  137  A    between atoms: _330  and  _332
REMARK  138  A    between atoms: _332  and  _333
REMARK  139  A    between atoms: _336  and  _338
REMARK  140  A    between atoms: _338  and  _339
REMARK  141  A    between atoms: _338  and  _341
REMARK  142  A    between atoms: _341  and  _342
REMARK  143  A    between atoms: _345  and  _347
REMARK  144  A    between atoms: _347  and  _348
REMARK  145  A    between atoms: _347  and  _350
REMARK  146  A    between atoms: _350  and  _351
REMARK  147  A    between atoms: _354  and  _356
REMARK  148  A    between atoms: _356  and  _357
REMARK  149  A    between atoms: _356  and  _359
REMARK  150  A    between atoms: _359  and  _360
REMARK  151  A    between atoms: _363  and  _365
REMARK  152  A    between atoms: _365  and  _366
REMARK  153  A    between atoms: _365  and  _368
REMARK  154  A    between atoms: _371  and  _373
REMARK  155  A    between atoms: _373  and  _374
REMARK  156  A    between atoms: _373  and  _376
REMARK  157  A    between atoms: _376  and  _377
REMARK  158  A    between atoms: _377  and  _378
REMARK  159  A    between atoms: _378  and  _379
REMARK  160  A    between atoms: _379  and  _380
REMARK  161  A    between atoms: _384  and  _386
REMARK  162  A    between atoms: _386  and  _387
REMARK  163  A    between atoms: _386  and  _389
REMARK  164  A    between atoms: _389  and  _390
REMARK  165  A    between atoms: _390  and  _391
REMARK  166  A    between atoms: _393  and  _395
REMARK  167  A    between atoms: _395  and  _396
REMARK  168  A    between atoms: _395  and  _398
REMARK  169  A    between atoms: _398  and  _399
REMARK  170  A    between atoms: _402  and  _404
REMARK  171  A    between atoms: _404  and  _405
REMARK  172  A    between atoms: _407  and  _409
REMARK  173  A    between atoms: _409  and  _410
REMARK  174  A    between atoms: _412  and  _414
REMARK  175  A    between atoms: _414  and  _415
REMARK  176  A    between atoms: _414  and  _417
REMARK  177  A    between atoms: _417  and  _418
REMARK  178  A    between atoms: _421  and  _423
REMARK  179  A    between atoms: _423  and  _424
REMARK  180  A    between atoms: _426  and  _428
REMARK  181  A    between atoms: _428  and  _429
REMARK  182  A    between atoms: _431  and  _433
REMARK  183  A    between atoms: _433  and  _434
REMARK  184  A    between atoms: _433  and  _436
REMARK  185  A    between atoms: _436  and  _437
REMARK  186  A    between atoms: _443  and  _445
REMARK  187  A    between atoms: _445  and  _446
REMARK  188  A    between atoms: _445  and  _448
REMARK  189  A    between atoms: _448  and  _449
REMARK  190  A    between atoms: _452  and  _454
REMARK  191  A    between atoms: _454  and  _455
REMARK  192  A    between atoms: _454  and  _457
REMARK  193  A    between atoms: _460  and  _462
REMARK  194  A    between atoms: _462  and  _463
REMARK  195  A    between atoms: _462  and  _465
REMARK  196  A    between atoms: _465  and  _466
REMARK  197  A    between atoms: _469  and  _471
REMARK  198  A    between atoms: _471  and  _472
REMARK  199  A    between atoms: _471  and  _474
REMARK  200  A    between atoms: _474  and  _475
REMARK  201  A    between atoms: _479  and  _480
REMARK  202  A    between atoms: _485  and  _487
REMARK  203  A    between atoms: _487  and  _488
REMARK  204  A    between atoms: _487  and  _490
REMARK  205  A    between atoms: _493  and  _495
REMARK  206  A    between atoms: _495  and  _496
REMARK  207  A    between atoms: _495  and  _498
REMARK  208  A    between atoms: _498  and  _499
REMARK  209  A    between atoms: _504  and  _506
REMARK  210  A    between atoms: _506  and  _507
REMARK  211  A    between atoms: _506  and  _509
REMARK  212  A    between atoms: _509  and  _510
REMARK  213  A    between atoms: _513  and  _515
REMARK  214  A    between atoms: _515  and  _516
REMARK  215  A    between atoms: _515  and  _518
REMARK  216  A    between atoms: _518  and  _519
REMARK  217  A    between atoms: _522  and  _524
REMARK  218  A    between atoms: _524  and  _525
REMARK  219  A    between atoms: _527  and  _529
REMARK  220  A    between atoms: _529  and  _530
REMARK  221  A    between atoms: _529  and  _532
REMARK  222  A    between atoms: _532  and  _533
REMARK  223  A    between atoms: _533  and  _534
REMARK  224  A    between atoms: _534  and  _535
REMARK  225  A    between atoms: _544  and  _546
REMARK  226  A    between atoms: _546  and  _547
REMARK  227  A    between atoms: _546  and  _549
REMARK  228  A    between atoms: _549  and  _550
REMARK                            x       y       z     vdW  Elec       q    Type
REMARK                         _______ _______ _______ _____ _____    ______ ____
ROOT
ATOM      1  NE  ARG A   1      21.077  37.197  23.885  0.00  0.00    -0.265 N 
ATOM      2  HE  ARG A   1      20.125  36.786  23.802  0.00  0.00    +0.259 HD
ATOM      3  CZ  ARG A   1      21.288  38.377  23.307  0.00  0.00    +0.342 C 
ATOM      4  NH2 ARG A   1      22.478  38.980  23.382  0.00  0.00    -0.292 N 
ATOM      5 HH21 ARG A   1      23.259  38.527  23.899  0.00  0.00    +0.255 HD
ATOM      6 HH22 ARG A   1      22.623  39.902  22.924  0.00  0.00    +0.255 HD
ATOM      7  NH1 ARG A   1      20.293  38.970  22.661  0.00  0.00    -0.292 N 
ATOM      8 HH11 ARG A   1      19.360  38.513  22.610  0.00  0.00    +0.255 HD
ATOM      9 HH12 ARG A   1      20.445  39.892  22.205  0.00  0.00    +0.255 HD
ENDROOT
BRANCH   1  10
ATOM     10  CD  ARG A   1      22.075  36.434  24.626  0.00  0.00    +0.174 C 
BRANCH  10  11
ATOM     11  CG  ARG A   1      21.443  35.246  25.312  0.00  0.00    +0.045 C 
BRANCH  11  12
ATOM     12  CB  ARG A   1      22.430  34.517  26.173  0.00  0.00    +0.029 C 
BRANCH  12  13
ATOM     13  CA  ARG A   1      21.799  33.491  27.111  0.00  0.00    +0.133 C 
BRANCH  13  14
ATOM     14  N   ARG A   1      21.080  34.144  28.217  0.00  0.00    -0.239 NA
ATOM     15  H   ARG A   1      21.032  35.182  28.256  0.00  0.00    +0.142 HD
ENDBRANCH  13  14
BRANCH  13  16
ATOM     16  C   ARG A   1      22.912  32.594  27.664  0.00  0.00    +0.224 C 
ATOM     17  O   ARG A   1      23.689  33.026  28.527  0.00  0.00    -0.287 OA
ENDBRANCH  13  16
ENDBRANCH  12  13
ENDBRANCH  11  12
ENDBRANCH  10  11
ENDBRANCH   1  10
TORSDOF 6
REMARK  Name = ../refined-set-2016/2qi4/2qi4_pocket.pdb
REMARK  228 active torsions:
REMARK  status: ('A' for Active; 'I' for Inactive)
REMARK    1  A    between atoms: _1  and  _3
REMARK    2  A    between atoms: _3  and  _4
REMARK    3  A    between atoms: _3  and  _6
REMARK    4  A    between atoms: _6  and  _7
REMARK    5  A    between atoms: _7  and  _8
REMARK    6  A    between atoms: _8  and  _9
REMARK    7  A    between atoms: _18  and  _20
REMARK    8  A    between atoms: _20  and  _21
REMARK    9  A    between atoms: _20  and  _23
REMARK   10  A    between atoms: _23  and  _24
REMARK   11  A    between atoms: _27  and  _29
REMARK   12  A    between atoms: _29  and  _30
REMARK   13  A    between atoms: _29  and  _32
REMARK   14  A    between atoms: _32  and  _33
REMARK   15  A    between atoms: _36  and  _38
REMARK   16  A    between atoms: _38  and  _39
REMARK   17  A    between atoms: _38  and  _41
REMARK   18  A    between atoms: _41  and  _42
REMARK   19  A    between atoms: _45  and  _47
REMARK   20  A    between atoms: _47  and  _48
REMARK   21  A    between atoms: _47  and  _50
REMARK   22  A    between atoms: _50  and  _51
REMARK   23  A    between atoms: _54  and  _56
REMARK   24  A    between atoms: _56  and  _57
REMARK   25  A    between atoms: _59  and  _61
REMARK   26  A    between atoms: _61  and  _62
REMARK   27  A    between atoms: _65  and  _67
REMARK   28  A    between atoms: _67  and  _68
REMARK   29  A    between atoms: _67  and  _70
REMARK   30  A    between atoms: _70  and  _71
REMARK   31  A    between atoms: _74  and  _76
REMARK   32  A    between atoms: _76  and  _77
REMARK   33  A    between atoms: _76  and  _79
REMARK   34  A    between atoms: _79  and  _80
REMARK   35  A    between atoms: _83  and  _85
REMARK   36  A    between atoms: _85  and  _86
REMARK   37  A    between atoms: _85  and  _88
REMARK   38  A    between atoms: _88  and  _89
REMARK   39  A    between atoms: _92  and  _94
REMARK   40  A    between atoms: _94  and  _95
REMARK   41  A    between atoms: _94  and  _97
REMARK   42  A    between atoms: _100  and  _102
REMARK   43  A    between atoms: _102  and  _103
REMARK   44  A    between atoms: _102  and  _105
REMARK   45  A    between atoms: _105  and  _106
REMARK   46  A    between atoms: _106  and  _107
REMARK   47  A    between atoms: _107  and  _108
REMARK   48  A    between atoms: _108  and  _109
REMARK   49  A    between atoms: _113  and  _115
REMARK   50  A    between atoms: _115  and  _116
REMARK   51  A    between atoms: _115  and  _118
REMARK   52  A    between atoms: _118  and  _119
REMARK   53  A    between atoms: _119  and  _120
REMARK   54  A    between atoms: _122  and  _124
REMARK   55  A    between atoms: _124  and  _125
REMARK   56  A    between atoms: _124  and  _127
REMARK   57  A    between atoms: _127  and  _128
REMARK   58  A    between atoms: _131  and  _133
REMARK   59  A    between atoms: _133  and  _134
REMARK   60  A    between atoms: _136  and  _138
REMARK   61  A    between atoms: _138  and  _139
REMARK   62  A    between atoms: _141  and  _143
REMARK   63  A    between atoms: _143  and  _144
REMARK   64  A    between atoms: _143  and  _146
REMARK   65  A    between atoms: _146  and  _147
REMARK   66  A    between atoms: _150  and  _152
REMARK   67  A    between atoms: _152  and  _153
REMARK   68  A    between atoms: _155  and  _157
REMARK   69  A    between atoms: _157  and  _158
REMARK   70  A    between atoms: _160  and  _162
REMARK   71  A    between atoms: _162  and  _163
REMARK   72  A    between atoms: _162  and  _165
REMARK   73  A    between atoms: _165  and  _166
REMARK   74  A    between atoms: _169  and  _171
REMARK   75  A    between atoms: _171  and  _172
REMARK   76  A    between atoms: _171  and  _174
REMARK   77  A    between atoms: _177  and  _179
REMARK   78  A    between atoms: _179  and  _180
REMARK   79  A    between atoms: _179  and  _182
REMARK   80  A    between atoms: _182  and  _183
REMARK   81  A    between atoms: _186  and  _188
REMARK   82  A    between atoms: _188  and  _189
REMARK   83  A    between atoms: _188  and  _191
REMARK   84  A    between atoms: _191  and  _192
REMARK   85  A    between atoms: _196  and  _197
REMARK   86  A    between atoms: _202  and  _204
REMARK   87  A    between atoms: _204  and  _205
REMARK   88  A    between atoms: _204  and  _207
REMARK   89  A    between atoms: _210  and  _212
REMARK   90  A    between atoms: _212  and  _213
REMARK   91  A    between atoms: _212  and  _215
REMARK   92  A    between atoms: _215  and  _216
REMARK   93  A    between atoms: _221  and  _223
REMARK   94  A    between atoms: _223  and  _224
REMARK   95  A    between atoms: _223  and  _226
REMARK   96  A    between atoms: _226  and  _227
REMARK   97  A    between atoms: _230  and  _232
REMARK   98  A    between atoms: _232  and  _233
REMARK   99  A    between atoms: _232  and  _235
REMARK  100  A    between atoms: _235  and  _236
REMARK  101  A    between atoms: _239  and  _241
REMARK  102  A    between atoms: _241  and  _242
REMARK  103  A    between atoms: _244  and  _246
REMARK  104  A    between atoms: _246  and  _247
REMARK  105  A    between atoms: _246  and  _249
REMARK  106  A    between atoms: _249  and  _250
REMARK  107  A    between atoms: _250  and  _251
REMARK  108  A    between atoms: _251  and  _252
REMARK  109  A    between atoms: _261  and  _263
REMARK  110  A    between atoms: _263  and  _264
REMARK  111  A    between atoms: _263  and  _266
REMARK  112  A    between atoms: _266  and  _267
REMARK  113  A    between atoms: _272  and  _274
REMARK  114  A    between atoms: _274  and  _275
REMARK  115  A    between atoms: _274  and  _277
REMARK  116  A    between atoms: _277  and  _278
REMARK  117  A    between atoms: _278  and  _279
REMARK  118  A    between atoms: _279  and  _280
REMARK  119  A    between atoms: _289  and  _291
REMARK  120  A    between atoms: _291  and  _292
REMARK  121  A    between atoms: _291  and  _294
REMARK  122  A    between atoms: _294  and  _295
REMARK  123  A    between atoms: _298  and  _300
REMARK  124  A    between atoms: _300  and  _301
REMARK  125  A    between atoms: _300  and  _303
REMARK  126  A    between atoms: _303  and  _304
REMARK  127  A    between atoms: _307  and  _309
REMARK  128  A    between atoms: _309  and  _310
REMARK  129  A    between atoms: _309  and  _312
REMARK  130  A    between atoms: _312  and  _313
REMARK  131  A    between atoms: _316  and  _318
REMARK  132  A    between atoms: _318  and  _319
REMARK  133  A    between atoms: _318  and  _321
REMARK  134  A    between atoms: _321  and  _322
REMARK  135  A    between atoms: _325  and  _327
REMARK  136  A    between atoms: _327  and  _328
REMARK  137  A    between atoms: _330  and  _332
REMARK  138  A    between atoms: _332  and  _333
REMARK  139  A    between atoms: _336  and  _338
REMARK  140  A    between atoms: _338  and  _339
REMARK  141  A    between atoms: _338  and  _341
REMARK  142  A    between atoms: _341  and  _342
REMARK  143  A    between atoms: _345  and  _347
REMARK  144  A    between atoms: _347  and  _348
REMARK  145  A    between atoms: _347  and  _350
REMARK  146  A    between atoms: _350  and  _351
REMARK  147  A    between atoms: _354  and  _356
REMARK  148  A    between atoms: _356  and  _357
REMARK  149  A    between atoms: _356  and  _359
REMARK  150  A    between atoms: _359  and  _360
REMARK  151  A    between atoms: _363  and  _365
REMARK  152  A    between atoms: _365  and  _366
REMARK  153  A    between atoms: _365  and  _368
REMARK  154  A    between atoms: _371  and  _373
REMARK  155  A    between atoms: _373  and  _374
REMARK  156  A    between atoms: _373  and  _376
REMARK  157  A    between atoms: _376  and  _377
REMARK  158  A    between atoms: _377  and  _378
REMARK  159  A    between atoms: _378  and  _379
REMARK  160  A    between atoms: _379  and  _380
REMARK  161  A    between atoms: _384  and  _386
REMARK  162  A    between atoms: _386  and  _387
REMARK  163  A    between atoms: _386  and  _389
REMARK  164  A    between atoms: _389  and  _390
REMARK  165  A    between atoms: _390  and  _391
REMARK  166  A    between atoms: _393  and  _395
REMARK  167  A    between atoms: _395  and  _396
REMARK  168  A    between atoms: _395  and  _398
REMARK  169  A    between atoms: _398  and  _399
REMARK  170  A    between atoms: _402  and  _404
REMARK  171  A    between atoms: _404  and  _405
REMARK  172  A    between atoms: _407  and  _409
REMARK  173  A    between atoms: _409  and  _410
REMARK  174  A    between atoms: _412  and  _414
REMARK  175  A    between atoms: _414  and  _415
REMARK  176  A    between atoms: _414  and  _417
REMARK  177  A    between atoms: _417  and  _418
REMARK  178  A    between atoms: _421  and  _423
REMARK  179  A    between atoms: _423  and  _424
REMARK  180  A    between atoms: _426  and  _428
REMARK  181  A    between atoms: _428  and  _429
REMARK  182  A    between atoms: _431  and  _433
REMARK  183  A    between atoms: _433  and  _434
REMARK  184  A    between atoms: _433  and  _436
REMARK  185  A    between atoms: _436  and  _437
REMARK  186  A    between atoms: _443  and  _445
REMARK  187  A    between atoms: _445  and  _446
REMARK  188  A    between atoms: _445  and  _448
REMARK  189  A    between atoms: _448  and  _449
REMARK  190  A    between atoms: _452  and  _454
REMARK  191  A    between atoms: _454  and  _455
REMARK  192  A    between atoms: _454  and  _457
REMARK  193  A    between atoms: _460  and  _462
REMARK  194  A    between atoms: _462  and  _463
REMARK  195  A    between atoms: _462  and  _465
REMARK  196  A    between atoms: _465  and  _466
REMARK  197  A    between atoms: _469  and  _471
REMARK  198  A    between atoms: _471  and  _472
REMARK  199  A    between atoms: _471  and  _474
REMARK  200  A    between atoms: _474  and  _475
REMARK  201  A    between atoms: _479  and  _480
REMARK  202  A    between atoms: _485  and  _487
REMARK  203  A    between atoms: _487  and  _488
REMARK  204  A    between atoms: _487  and  _490
REMARK  205  A    between atoms: _493  and  _495
REMARK  206  A    between atoms: _495  and  _496
REMARK  207  A    between atoms: _495  and  _498
REMARK  208  A    between atoms: _498  and  _499
REMARK  209  A    between atoms: _504  and  _506
REMARK  210  A    between atoms: _506  and  _507
REMARK  211  A    between atoms: _506  and  _509
REMARK  212  A    between atoms: _509  and  _510
REMARK  213  A    between atoms: _513  and  _515
REMARK  214  A    between atoms: _515  and  _516
REMARK  215  A    between atoms: _515  and  _518
REMARK  216  A    between atoms: _518  and  _519
REMARK  217  A    between atoms: _522  and  _524
REMARK  218  A    between atoms: _524  and  _525
REMARK  219  A    between atoms: _527  and  _529
REMARK  220  A    between atoms: _529  and  _530
REMARK  221  A    between atoms: _529  and  _532
REMARK  222  A    between atoms: _532  and  _533
REMARK  223  A    between atoms: _533  and  _534
REMARK  224  A    between atoms: _534  and  _535
REMARK  225  A    between atoms: _544  and  _546
REMARK  226  A    between atoms: _546  and  _547
REMARK  227  A    between atoms: _546  and  _549
REMARK  228  A    between atoms: _549  and  _550
REMARK                            x       y       z     vdW  Elec       q    Type
REMARK                         _______ _______ _______ _____ _____    ______ ____
ROOT
ATOM      1  C   GLY A   5      20.644  25.277  15.783  0.00  0.00    +0.243 C 
ATOM      2  N   ALA A   6      21.943  25.291  16.085  0.00  0.00    -0.297 N 
ATOM      3  H   ALA A   6      22.223  25.204  17.083  0.00  0.00    +0.150 HD
ATOM      4  O   GLY A   5      20.218  25.408  14.631  0.00  0.00    -0.273 OA
ENDROOT
BRANCH   2   5
ATOM      5  CA  ALA A   6      22.993  25.424  15.069  0.00  0.00    +0.149 C 
ATOM      6  CB  ALA A   6      24.029  26.470  15.503  0.00  0.00    +0.031 C 
BRANCH   5   7
ATOM      7  C   ALA A   6      23.666  24.073  14.813  0.00  0.00    +0.241 C 
ATOM      8  O   ALA A   6      24.160  23.427  15.735  0.00  0.00    -0.273 OA
ATOM      9  N   ASP A   7      23.672  23.642  13.554  0.00  0.00    -0.297 N 
ATOM     10  H   ASP A   7      23.157  24.182  12.830  0.00  0.00    +0.150 HD
BRANCH   9  11
ATOM     11  CA  ASP A   7      24.390  22.419  13.163  0.00  0.00    +0.160 C 
BRANCH  11  12
ATOM     12  C   ASP A   7      25.899  22.590  13.305  0.00  0.00    +0.241 C 
ATOM     13  O   ASP A   7      26.633  21.652  13.672  0.00  0.00    -0.273 OA
ATOM     14  N   ASP A   8      26.346  23.796  12.982  0.00  0.00    -0.297 N 
ATOM     15  H   ASP A   8      25.650  24.548  12.808  0.00  0.00    +0.150 HD
BRANCH  14  16
ATOM     16  CA  ASP A   8      27.754  24.122  12.859  0.00  0.00    +0.160 C 
BRANCH  16  17
ATOM     17  C   ASP A   8      28.197  25.091  13.940  0.00  0.00    +0.241 C 
ATOM     18  O   ASP A   8      27.389  25.831  14.511  0.00  0.00    -0.273 OA
ATOM     19  N   THR A   9      29.498  25.099  14.186  0.00  0.00    -0.295 N 
ATOM     20  H   THR A   9      30.096  24.364  13.757  0.00  0.00    +0.150 HD
BRANCH  19  21
ATOM     21  CA  THR A   9      30.116  26.101  15.035  0.00  0.00    +0.176 C 
BRANCH  21  22
ATOM     22  C   THR A   9      30.607  27.235  14.141  0.00  0.00    +0.243 C 
ATOM     23  N   VAL A  10      30.136  28.450  14.424  0.00  0.00    -0.298 N 
ATOM     24  H   VAL A  10      29.554  28.581  15.276  0.00  0.00    +0.150 HD
ATOM     25  O   THR A   9      31.371  27.007  13.204  0.00  0.00    -0.273 OA
BRANCH  23  26
ATOM     26  CA  VAL A  10      30.416  29.605  13.569  0.00  0.00    +0.137 C 
BRANCH  26  27
ATOM     27  CB  VAL A  10      29.186  30.051  12.760  0.00  0.00    +0.026 C 
ATOM     28  CG2 VAL A  10      28.445  28.854  12.205  0.00  0.00    +0.002 C 
ATOM     29  CG1 VAL A  10      29.621  30.963  11.612  0.00  0.00    +0.002 C 
ENDBRANCH  26  27
BRANCH  26  30
ATOM     30  C   VAL A  10      30.931  30.764  14.420  0.00  0.00    +0.227 C 
ATOM     31  O   VAL A  10      30.255  31.223  15.344  0.00  0.00    -0.286 OA
ENDBRANCH  26  30
ENDBRANCH  23  26
ENDBRANCH  21  22
BRANCH  21  32
ATOM     32  CB  THR A   9      31.242  25.473  15.851  0.00  0.00    +0.137 C 
ATOM     33  CG2 THR A   9      32.024  26.526  16.632  0.00  0.00    +0.034 C 
BRANCH  32  34
ATOM     34  OG1 THR A   9      30.664  24.518  16.751  0.00  0.00    -0.382 OA
ATOM     35  HG1 THR A   9      30.190  23.821  16.231  0.00  0.00    +0.210 HD
ENDBRANCH  32  34
ENDBRANCH  21  32
ENDBRANCH  19  21
ENDBRANCH  16  17
BRANCH  16  36
ATOM     36  CB  ASP A   8      28.012  24.781  11.500  0.00  0.00    +0.143 C 
BRANCH  36  37
ATOM     37  CG  ASP A   8      27.445  23.991  10.348  0.00  0.00    +0.367 C 
ATOM     38  OD2 ASP A   8      27.840  22.815  10.175  0.00  0.00    -0.246 OA
ATOM     39  OD1 ASP A   8      26.603  24.547   9.612  0.00  0.00    -0.246 OA
ENDBRANCH  36  37
ENDBRANCH  16  36
ENDBRANCH  14  16
ENDBRANCH  11  12
BRANCH  11  40
ATOM     40  CB  ASP A   7      24.103  22.064  11.706  0.00  0.00    +0.143 C 
BRANCH  40  41
ATOM     41  CG  ASP A   7      22.628  21.831  11.418  0.00  0.00    +0.367 C 
ATOM     42  OD2 ASP A   7      21.827  21.625  12.351  0.00  0.00    -0.246 OA
ATOM     43  OD1 ASP A   7      22.274  21.836  10.224  0.00  0.00    -0.246 OA
ENDBRANCH  40  41
ENDBRANCH  11  40
ENDBRANCH   9  11
ENDBRANCH   5   7
ENDBRANCH   2   5
BRANCH   1  44
ATOM     44  CA  GLY A   5      19.671  25.092  16.936  0.00  0.00    +0.176 C 
BRANCH  44  46
ATOM     45  C   THR A   4      20.769  23.776  18.674  0.00  0.00    +0.243 C 
ATOM     46  N   GLY A   5      20.292  24.947  18.252  0.00  0.00    -0.295 N 
ATOM     47  H   GLY A   5      20.363  25.778  18.874  0.00  0.00    +0.150 HD
ATOM     48  O   THR A   4      20.674  22.736  18.014  0.00  0.00    -0.273 OA
BRANCH  45  49
ATOM     49  CA  THR A   4      21.475  23.765  20.030  0.00  0.00    +0.176 C 
BRANCH  49  51
ATOM     50  C   ASP A   3      22.937  25.699  19.776  0.00  0.00    +0.241 C 
ATOM     51  N   THR A   4      21.962  25.087  20.443  0.00  0.00    -0.295 N 
ATOM     52  H   THR A   4      21.538  25.553  21.271  0.00  0.00    +0.150 HD
ATOM     53  O   ASP A   3      23.420  25.237  18.747  0.00  0.00    -0.273 OA
BRANCH  50  54
ATOM     54  CA  ASP A   3      23.429  27.032  20.349  0.00  0.00    +0.160 C 
BRANCH  54  57
ATOM     55  C   LEU A   2      24.504  27.343  22.506  0.00  0.00    +0.241 C 
ATOM     56  O   LEU A   2      23.483  27.743  23.045  0.00  0.00    -0.273 OA
ATOM     57  N   ASP A   3      24.532  26.847  21.273  0.00  0.00    -0.297 N 
ATOM     58  H   ASP A   3      25.368  26.312  20.962  0.00  0.00    +0.150 HD
BRANCH  55  59
ATOM     59  CA  LEU A   2      25.836  27.415  23.230  0.00  0.00    +0.149 C 
BRANCH  59  61
ATOM     60  C   LEU A   1      26.579  29.568  22.403  0.00  0.00    +0.238 C 
ATOM     61  N   LEU A   2      26.159  28.817  23.419  0.00  0.00    -0.297 N 
ATOM     62  H   LEU A   2      26.061  29.242  24.363  0.00  0.00    +0.150 HD
ATOM     63  O   LEU A   1      26.780  29.116  21.261  0.00  0.00    -0.274 OA
BRANCH  60  64
ATOM     64  CA  LEU A   1      26.783  31.044  22.693  0.00  0.00    +0.145 C 
BRANCH  64  65
ATOM     65  N   LEU A   1      28.110  31.439  22.291  0.00  0.00    -0.238 NA
ATOM     66  H   LEU A   1      28.277  31.653  21.287  0.00  0.00    +0.142 HD
ENDBRANCH  64  65
BRANCH  64  67
ATOM     67  CB  LEU A   1      25.780  31.855  21.886  0.00  0.00    +0.026 C 
BRANCH  67  68
ATOM     68  CG  LEU A   1      24.289  31.673  22.150  0.00  0.00    +0.002 C 
ATOM     69  CD2 LEU A   1      23.921  32.243  23.490  0.00  0.00    +0.000 C 
ATOM     70  CD1 LEU A   1      23.504  32.357  21.038  0.00  0.00    +0.000 C 
ENDBRANCH  67  68
ENDBRANCH  64  67
ENDBRANCH  60  64
ENDBRANCH  59  61
BRANCH  59  71
ATOM     71  CB  LEU A   2      25.772  26.675  24.567  0.00  0.00    +0.029 C 
BRANCH  71  72
ATOM     72  CG  LEU A   2      27.043  26.713  25.416  0.00  0.00    +0.002 C 
ATOM     73  CD2 LEU A   2      26.805  25.978  26.732  0.00  0.00    +0.000 C 
ATOM     74  CD1 LEU A   2      28.252  26.116  24.675  0.00  0.00    +0.000 C 
ENDBRANCH  71  72
ENDBRANCH  59  71
ENDBRANCH  55  59
ENDBRANCH  54  57
BRANCH  54  75
ATOM     75  CB  ASP A   3      23.896  27.989  19.239  0.00  0.00    +0.143 C 
BRANCH  75  76
ATOM     76  CG  ASP A   3      22.784  28.404  18.320  0.00  0.00    +0.367 C 
ATOM     77  OD2 ASP A   3      21.671  27.804  18.393  0.00  0.00    -0.246 OA
ATOM     78  OD1 ASP A   3      23.025  29.345  17.537  0.00  0.00    -0.246 OA
ENDBRANCH  75  76
ENDBRANCH  54  75
ENDBRANCH  50  54
ENDBRANCH  49  51
BRANCH  49  79
ATOM     79  CB  THR A   4      20.547  23.132  21.083  0.00  0.00    +0.137 C 
ATOM     80  CG2 THR A   4      21.313  22.904  22.386  0.00  0.00    +0.034 C 
BRANCH  79  81
ATOM     81  OG1 THR A   4      19.401  23.972  21.318  0.00  0.00    -0.382 OA
ATOM     82  HG1 THR A   4      18.898  24.086  20.473  0.00  0.00    +0.210 HD
ENDBRANCH  79  81
ENDBRANCH  49  79
ENDBRANCH  45  49
ENDBRANCH  44  46
ENDBRANCH   1  44
TORSDOF 35
REMARK  Name = ../refined-set-2016/2qi4/2qi4_pocket.pdb
REMARK  228 active torsions:
REMARK  status: ('A' for Active; 'I' for Inactive)
REMARK    1  A    between atoms: _1  and  _3
REMARK    2  A    between atoms: _3  and  _4
REMARK    3  A    between atoms: _3  and  _6
REMARK    4  A    between atoms: _6  and  _7
REMARK    5  A    between atoms: _7  and  _8
REMARK    6  A    between atoms: _8  and  _9
REMARK    7  A    between atoms: _18  and  _20
REMARK    8  A    between atoms: _20  and  _21
REMARK    9  A    between atoms: _20  and  _23
REMARK   10  A    between atoms: _23  and  _24
REMARK   11  A    between atoms: _27  and  _29
REMARK   12  A    between atoms: _29  and  _30
REMARK   13  A    between atoms: _29  and  _32
REMARK   14  A    between atoms: _32  and  _33
REMARK   15  A    between atoms: _36  and  _38
REMARK   16  A    between atoms: _38  and  _39
REMARK   17  A    between atoms: _38  and  _41
REMARK   18  A    between atoms: _41  and  _42
REMARK   19  A    between atoms: _45  and  _47
REMARK   20  A    between atoms: _47  and  _48
REMARK   21  A    between atoms: _47  and  _50
REMARK   22  A    between atoms: _50  and  _51
REMARK   23  A    between atoms: _54  and  _56
REMARK   24  A    between atoms: _56  and  _57
REMARK   25  A    between atoms: _59  and  _61
REMARK   26  A    between atoms: _61  and  _62
REMARK   27  A    between atoms: _65  and  _67
REMARK   28  A    between atoms: _67  and  _68
REMARK   29  A    between atoms: _67  and  _70
REMARK   30  A    between atoms: _70  and  _71
REMARK   31  A    between atoms: _74  and  _76
REMARK   32  A    between atoms: _76  and  _77
REMARK   33  A    between atoms: _76  and  _79
REMARK   34  A    between atoms: _79  and  _80
REMARK   35  A    between atoms: _83  and  _85
REMARK   36  A    between atoms: _85  and  _86
REMARK   37  A    between atoms: _85  and  _88
REMARK   38  A    between atoms: _88  and  _89
REMARK   39  A    between atoms: _92  and  _94
REMARK   40  A    between atoms: _94  and  _95
REMARK   41  A    between atoms: _94  and  _97
REMARK   42  A    between atoms: _100  and  _102
REMARK   43  A    between atoms: _102  and  _103
REMARK   44  A    between atoms: _102  and  _105
REMARK   45  A    between atoms: _105  and  _106
REMARK   46  A    between atoms: _106  and  _107
REMARK   47  A    between atoms: _107  and  _108
REMARK   48  A    between atoms: _108  and  _109
REMARK   49  A    between atoms: _113  and  _115
REMARK   50  A    between atoms: _115  and  _116
REMARK   51  A    between atoms: _115  and  _118
REMARK   52  A    between atoms: _118  and  _119
REMARK   53  A    between atoms: _119  and  _120
REMARK   54  A    between atoms: _122  and  _124
REMARK   55  A    between atoms: _124  and  _125
REMARK   56  A    between atoms: _124  and  _127
REMARK   57  A    between atoms: _127  and  _128
REMARK   58  A    between atoms: _131  and  _133
REMARK   59  A    between atoms: _133  and  _134
REMARK   60  A    between atoms: _136  and  _138
REMARK   61  A    between atoms: _138  and  _139
REMARK   62  A    between atoms: _141  and  _143
REMARK   63  A    between atoms: _143  and  _144
REMARK   64  A    between atoms: _143  and  _146
REMARK   65  A    between atoms: _146  and  _147
REMARK   66  A    between atoms: _150  and  _152
REMARK   67  A    between atoms: _152  and  _153
REMARK   68  A    between atoms: _155  and  _157
REMARK   69  A    between atoms: _157  and  _158
REMARK   70  A    between atoms: _160  and  _162
REMARK   71  A    between atoms: _162  and  _163
REMARK   72  A    between atoms: _162  and  _165
REMARK   73  A    between atoms: _165  and  _166
REMARK   74  A    between atoms: _169  and  _171
REMARK   75  A    between atoms: _171  and  _172
REMARK   76  A    between atoms: _171  and  _174
REMARK   77  A    between atoms: _177  and  _179
REMARK   78  A    between atoms: _179  and  _180
REMARK   79  A    between atoms: _179  and  _182
REMARK   80  A    between atoms: _182  and  _183
REMARK   81  A    between atoms: _186  and  _188
REMARK   82  A    between atoms: _188  and  _189
REMARK   83  A    between atoms: _188  and  _191
REMARK   84  A    between atoms: _191  and  _192
REMARK   85  A    between atoms: _196  and  _197
REMARK   86  A    between atoms: _202  and  _204
REMARK   87  A    between atoms: _204  and  _205
REMARK   88  A    between atoms: _204  and  _207
REMARK   89  A    between atoms: _210  and  _212
REMARK   90  A    between atoms: _212  and  _213
REMARK   91  A    between atoms: _212  and  _215
REMARK   92  A    between atoms: _215  and  _216
REMARK   93  A    between atoms: _221  and  _223
REMARK   94  A    between atoms: _223  and  _224
REMARK   95  A    between atoms: _223  and  _226
REMARK   96  A    between atoms: _226  and  _227
REMARK   97  A    between atoms: _230  and  _232
REMARK   98  A    between atoms: _232  and  _233
REMARK   99  A    between atoms: _232  and  _235
REMARK  100  A    between atoms: _235  and  _236
REMARK  101  A    between atoms: _239  and  _241
REMARK  102  A    between atoms: _241  and  _242
REMARK  103  A    between atoms: _244  and  _246
REMARK  104  A    between atoms: _246  and  _247
REMARK  105  A    between atoms: _246  and  _249
REMARK  106  A    between atoms: _249  and  _250
REMARK  107  A    between atoms: _250  and  _251
REMARK  108  A    between atoms: _251  and  _252
REMARK  109  A    between atoms: _261  and  _263
REMARK  110  A    between atoms: _263  and  _264
REMARK  111  A    between atoms: _263  and  _266
REMARK  112  A    between atoms: _266  and  _267
REMARK  113  A    between atoms: _272  and  _274
REMARK  114  A    between atoms: _274  and  _275
REMARK  115  A    between atoms: _274  and  _277
REMARK  116  A    between atoms: _277  and  _278
REMARK  117  A    between atoms: _278  and  _279
REMARK  118  A    between atoms: _279  and  _280
REMARK  119  A    between atoms: _289  and  _291
REMARK  120  A    between atoms: _291  and  _292
REMARK  121  A    between atoms: _291  and  _294
REMARK  122  A    between atoms: _294  and  _295
REMARK  123  A    between atoms: _298  and  _300
REMARK  124  A    between atoms: _300  and  _301
REMARK  125  A    between atoms: _300  and  _303
REMARK  126  A    between atoms: _303  and  _304
REMARK  127  A    between atoms: _307  and  _309
REMARK  128  A    between atoms: _309  and  _310
REMARK  129  A    between atoms: _309  and  _312
REMARK  130  A    between atoms: _312  and  _313
REMARK  131  A    between atoms: _316  and  _318
REMARK  132  A    between atoms: _318  and  _319
REMARK  133  A    between atoms: _318  and  _321
REMARK  134  A    between atoms: _321  and  _322
REMARK  135  A    between atoms: _325  and  _327
REMARK  136  A    between atoms: _327  and  _328
REMARK  137  A    between atoms: _330  and  _332
REMARK  138  A    between atoms: _332  and  _333
REMARK  139  A    between atoms: _336  and  _338
REMARK  140  A    between atoms: _338  and  _339
REMARK  141  A    between atoms: _338  and  _341
REMARK  142  A    between atoms: _341  and  _342
REMARK  143  A    between atoms: _345  and  _347
REMARK  144  A    between atoms: _347  and  _348
REMARK  145  A    between atoms: _347  and  _350
REMARK  146  A    between atoms: _350  and  _351
REMARK  147  A    between atoms: _354  and  _356
REMARK  148  A    between atoms: _356  and  _357
REMARK  149  A    between atoms: _356  and  _359
REMARK  150  A    between atoms: _359  and  _360
REMARK  151  A    between atoms: _363  and  _365
REMARK  152  A    between atoms: _365  and  _366
REMARK  153  A    between atoms: _365  and  _368
REMARK  154  A    between atoms: _371  and  _373
REMARK  155  A    between atoms: _373  and  _374
REMARK  156  A    between atoms: _373  and  _376
REMARK  157  A    between atoms: _376  and  _377
REMARK  158  A    between atoms: _377  and  _378
REMARK  159  A    between atoms: _378  and  _379
REMARK  160  A    between atoms: _379  and  _380
REMARK  161  A    between atoms: _384  and  _386
REMARK  162  A    between atoms: _386  and  _387
REMARK  163  A    between atoms: _386  and  _389
REMARK  164  A    between atoms: _389  and  _390
REMARK  165  A    between atoms: _390  and  _391
REMARK  166  A    between atoms: _393  and  _395
REMARK  167  A    between atoms: _395  and  _396
REMARK  168  A    between atoms: _395  and  _398
REMARK  169  A    between atoms: _398  and  _399
REMARK  170  A    between atoms: _402  and  _404
REMARK  171  A    between atoms: _404  and  _405
REMARK  172  A    between atoms: _407  and  _409
REMARK  173  A    between atoms: _409  and  _410
REMARK  174  A    between atoms: _412  and  _414
REMARK  175  A    between atoms: _414  and  _415
REMARK  176  A    between atoms: _414  and  _417
REMARK  177  A    between atoms: _417  and  _418
REMARK  178  A    between atoms: _421  and  _423
REMARK  179  A    between atoms: _423  and  _424
REMARK  180  A    between atoms: _426  and  _428
REMARK  181  A    between atoms: _428  and  _429
REMARK  182  A    between atoms: _431  and  _433
REMARK  183  A    between atoms: _433  and  _434
REMARK  184  A    between atoms: _433  and  _436
REMARK  185  A    between atoms: _436  and  _437
REMARK  186  A    between atoms: _443  and  _445
REMARK  187  A    between atoms: _445  and  _446
REMARK  188  A    between atoms: _445  and  _448
REMARK  189  A    between atoms: _448  and  _449
REMARK  190  A    between atoms: _452  and  _454
REMARK  191  A    between atoms: _454  and  _455
REMARK  192  A    between atoms: _454  and  _457
REMARK  193  A    between atoms: _460  and  _462
REMARK  194  A    between atoms: _462  and  _463
REMARK  195  A    between atoms: _462  and  _465
REMARK  196  A    between atoms: _465  and  _466
REMARK  197  A    between atoms: _469  and  _471
REMARK  198  A    between atoms: _471  and  _472
REMARK  199  A    between atoms: _471  and  _474
REMARK  200  A    between atoms: _474  and  _475
REMARK  201  A    between atoms: _479  and  _480
REMARK  202  A    between atoms: _485  and  _487
REMARK  203  A    between atoms: _487  and  _488
REMARK  204  A    between atoms: _487  and  _490
REMARK  205  A    between atoms: _493  and  _495
REMARK  206  A    between atoms: _495  and  _496
REMARK  207  A    between atoms: _495  and  _498
REMARK  208  A    between atoms: _498  and  _499
REMARK  209  A    between atoms: _504  and  _506
REMARK  210  A    between atoms: _506  and  _507
REMARK  211  A    between atoms: _506  and  _509
REMARK  212  A    between atoms: _509  and  _510
REMARK  213  A    between atoms: _513  and  _515
REMARK  214  A    between atoms: _515  and  _516
REMARK  215  A    between atoms: _515  and  _518
REMARK  216  A    between atoms: _518  and  _519
REMARK  217  A    between atoms: _522  and  _524
REMARK  218  A    between atoms: _524  and  _525
REMARK  219  A    between atoms: _527  and  _529
REMARK  220  A    between atoms: _529  and  _530
REMARK  221  A    between atoms: _529  and  _532
REMARK  222  A    between atoms: _532  and  _533
REMARK  223  A    between atoms: _533  and  _534
REMARK  224  A    between atoms: _534  and  _535
REMARK  225  A    between atoms: _544  and  _546
REMARK  226  A    between atoms: _546  and  _547
REMARK  227  A    between atoms: _546  and  _549
REMARK  228  A    between atoms: _549  and  _550
REMARK                            x       y       z     vdW  Elec       q    Type
REMARK                         _______ _______ _______ _____ _____    ______ ____
ROOT
ATOM      1  C   ILE A   3      24.484  29.021   5.250  0.00  0.00    +0.241 C 
ATOM      2  N   GLY A   4      23.352  28.435   5.631  0.00  0.00    -0.295 N 
ATOM      3  H   GLY A   4      23.374  27.428   5.889  0.00  0.00    +0.150 HD
ATOM      4  O   ILE A   3      24.580  30.224   4.980  0.00  0.00    -0.273 OA
ENDROOT
BRANCH   2   5
ATOM      5  CA  GLY A   4      22.077  29.149   5.702  0.00  0.00    +0.176 C 
BRANCH   5   6
ATOM      6  C   GLY A   4      21.553  29.265   7.120  0.00  0.00    +0.243 C 
ATOM      7  O   GLY A   4      21.628  28.323   7.904  0.00  0.00    -0.273 OA
ATOM      8  N   GLY A   5      21.018  30.437   7.433  0.00  0.00    -0.295 N 
ATOM      9  H   GLY A   5      21.050  31.201   6.728  0.00  0.00    +0.150 HD
BRANCH   8  10
ATOM     10  CA  GLY A   5      20.388  30.703   8.719  0.00  0.00    +0.176 C 
BRANCH  10  11
ATOM     11  C   GLY A   5      19.018  31.306   8.483  0.00  0.00    +0.243 C 
ATOM     12  N   ILE A   6      18.500  31.963   9.507  0.00  0.00    -0.297 N 
ATOM     13  H   ILE A   6      19.072  32.107  10.364  0.00  0.00    +0.150 HD
ATOM     14  O   GLY A   5      18.439  31.191   7.384  0.00  0.00    -0.273 OA
BRANCH  12  15
ATOM     15  CA  ILE A   6      17.148  32.486   9.456  0.00  0.00    +0.149 C 
BRANCH  15  16
ATOM     16  C   ILE A   6      16.983  33.560   8.377  0.00  0.00    +0.241 C 
ATOM     17  N   GLY A   7      18.047  34.320   8.109  0.00  0.00    -0.295 N 
ATOM     18  H   GLY A   7      18.948  34.099   8.579  0.00  0.00    +0.150 HD
ATOM     19  O   ILE A   6      15.908  33.687   7.806  0.00  0.00    -0.273 OA
BRANCH  17  20
ATOM     20  CA  GLY A   7      18.000  35.452   7.181  0.00  0.00    +0.176 C 
BRANCH  20  21
ATOM     21  C   GLY A   7      18.521  35.212   5.773  0.00  0.00    +0.243 C 
ATOM     22  N   GLY A   8      18.960  33.984   5.502  0.00  0.00    -0.296 N 
ATOM     23  H   GLY A   8      18.886  33.255   6.240  0.00  0.00    +0.150 HD
ATOM     24  O   GLY A   7      18.505  36.127   4.940  0.00  0.00    -0.273 OA
BRANCH  22  25
ATOM     25  CA  GLY A   8      19.534  33.622   4.227  0.00  0.00    +0.163 C 
BRANCH  25  26
ATOM     26  C   GLY A   8      20.899  32.984   4.367  0.00  0.00    +0.229 C 
ATOM     27  O   GLY A   8      21.266  32.479   5.432  0.00  0.00    -0.286 OA
ENDBRANCH  25  26
ENDBRANCH  22  25
ENDBRANCH  20  21
ENDBRANCH  17  20
ENDBRANCH  15  16
BRANCH  15  28
ATOM     28  CB  ILE A   6      16.695  33.031  10.839  0.00  0.00    +0.027 C 
ATOM     29  CG2 ILE A   6      17.158  34.468  11.034  0.00  0.00    +0.002 C 
BRANCH  28  30
ATOM     30  CG1 ILE A   6      15.178  32.887  10.978  0.00  0.00    +0.002 C 
ATOM     31  CD1 ILE A   6      14.649  33.175  12.367  0.00  0.00    +0.000 C 
ENDBRANCH  28  30
ENDBRANCH  15  28
ENDBRANCH  12  15
ENDBRANCH  10  11
ENDBRANCH   8  10
ENDBRANCH   5   6
ENDBRANCH   2   5
BRANCH   1  32
ATOM     32  CA  ILE A   3      25.701  28.107   5.198  0.00  0.00    +0.149 C 
BRANCH  32  34
ATOM     33  C   MET A   2      27.254  27.837   3.325  0.00  0.00    +0.241 C 
ATOM     34  N   ILE A   3      26.688  28.614   4.248  0.00  0.00    -0.297 N 
ATOM     35  H   ILE A   3      26.959  29.617   4.294  0.00  0.00    +0.150 HD
ATOM     36  O   MET A   2      27.058  26.631   3.254  0.00  0.00    -0.273 OA
BRANCH  33  37
ATOM     37  CA  MET A   2      28.198  28.521   2.345  0.00  0.00    +0.149 C 
BRANCH  37  40
ATOM     38  C   LYS A   1      30.600  28.124   2.402  0.00  0.00    +0.238 C 
ATOM     39  O   LYS A   1      30.845  29.300   2.680  0.00  0.00    -0.274 OA
ATOM     40  N   MET A   2      29.378  27.686   2.115  0.00  0.00    -0.297 N 
ATOM     41  H   MET A   2      29.258  26.732   1.719  0.00  0.00    +0.150 HD
BRANCH  38  42
ATOM     42  CA  LYS A   1      31.732  27.103   2.322  0.00  0.00    +0.145 C 
BRANCH  42  43
ATOM     43  N   LYS A   1      32.980  27.821   2.057  0.00  0.00    -0.238 NA
ATOM     44  H   LYS A   1      33.129  28.746   2.508  0.00  0.00    +0.142 HD
ENDBRANCH  42  43
BRANCH  42  45
ATOM     45  CB  LYS A   1      31.856  26.319   3.634  0.00  0.00    +0.026 C 
BRANCH  45  46
ATOM     46  CG  LYS A   1      30.617  25.541   4.084  0.00  0.00    -0.000 C 
BRANCH  46  47
ATOM     47  CD  LYS A   1      30.946  24.661   5.293  0.00  0.00    -0.024 C 
BRANCH  47  48
ATOM     48  CE  LYS A   1      29.715  24.044   5.939  0.00  0.00    -0.086 C 
BRANCH  48  49
ATOM     49  NZ  LYS A   1      29.310  22.761   5.287  0.00  0.00    +0.380 N 
ATOM     50  HZ1 LYS A   1      28.467  22.382   5.764  0.00  0.00    -0.089 HD
ATOM     51  HZ2 LYS A   1      30.089  22.076   5.360  0.00  0.00    -0.089 HD
ATOM     52  HZ3 LYS A   1      29.093  22.936   4.285  0.00  0.00    -0.089 HD
ENDBRANCH  48  49
ENDBRANCH  47  48
ENDBRANCH  46  47
ENDBRANCH  45  46
ENDBRANCH  42  45
ENDBRANCH  38  42
ENDBRANCH  37  40
BRANCH  37  53
ATOM     53  CB  MET A   2      27.473  28.801   1.029  0.00  0.00    +0.041 C 
BRANCH  53  54
ATOM     54  CG  MET A   2      28.233  29.728   0.107  0.00  0.00    +0.060 C 
BRANCH  54  55
ATOM     55  SD  MET A   2      27.384  29.972  -1.442  0.00  0.00    -0.139 S 
ATOM     56  CE  MET A   2      25.965  30.937  -0.919  0.00  0.00    +0.069 C 
ENDBRANCH  54  55
ENDBRANCH  53  54
ENDBRANCH  37  53
ENDBRANCH  33  37
ENDBRANCH  32  34
BRANCH  32  57
ATOM     57  CB  ILE A   3      26.276  27.944   6.628  0.00  0.00    +0.027 C 
ATOM     58  CG2 ILE A   3      27.407  26.923   6.624  0.00  0.00    +0.002 C 
BRANCH  57  59
ATOM     59  CG1 ILE A   3      26.732  29.293   7.206  0.00  0.00    +0.002 C 
ATOM     60  CD1 ILE A   3      27.163  29.215   8.659  0.00  0.00    +0.000 C 
ENDBRANCH  57  59
ENDBRANCH  32  57
ENDBRANCH   1  32
TORSDOF 28
REMARK  Name = ../refined-set-2016/2qi4/2qi4_pocket.pdb
REMARK  228 active torsions:
REMARK  status: ('A' for Active; 'I' for Inactive)
REMARK    1  A    between atoms: _1  and  _3
REMARK    2  A    between atoms: _3  and  _4
REMARK    3  A    between atoms: _3  and  _6
REMARK    4  A    between atoms: _6  and  _7
REMARK    5  A    between atoms: _7  and  _8
REMARK    6  A    between atoms: _8  and  _9
REMARK    7  A    between atoms: _18  and  _20
REMARK    8  A    between atoms: _20  and  _21
REMARK    9  A    between atoms: _20  and  _23
REMARK   10  A    between atoms: _23  and  _24
REMARK   11  A    between atoms: _27  and  _29
REMARK   12  A    between atoms: _29  and  _30
REMARK   13  A    between atoms: _29  and  _32
REMARK   14  A    between atoms: _32  and  _33
REMARK   15  A    between atoms: _36  and  _38
REMARK   16  A    between atoms: _38  and  _39
REMARK   17  A    between atoms: _38  and  _41
REMARK   18  A    between atoms: _41  and  _42
REMARK   19  A    between atoms: _45  and  _47
REMARK   20  A    between atoms: _47  and  _48
REMARK   21  A    between atoms: _47  and  _50
REMARK   22  A    between atoms: _50  and  _51
REMARK   23  A    between atoms: _54  and  _56
REMARK   24  A    between atoms: _56  and  _57
REMARK   25  A    between atoms: _59  and  _61
REMARK   26  A    between atoms: _61  and  _62
REMARK   27  A    between atoms: _65  and  _67
REMARK   28  A    between atoms: _67  and  _68
REMARK   29  A    between atoms: _67  and  _70
REMARK   30  A    between atoms: _70  and  _71
REMARK   31  A    between atoms: _74  and  _76
REMARK   32  A    between atoms: _76  and  _77
REMARK   33  A    between atoms: _76  and  _79
REMARK   34  A    between atoms: _79  and  _80
REMARK   35  A    between atoms: _83  and  _85
REMARK   36  A    between atoms: _85  and  _86
REMARK   37  A    between atoms: _85  and  _88
REMARK   38  A    between atoms: _88  and  _89
REMARK   39  A    between atoms: _92  and  _94
REMARK   40  A    between atoms: _94  and  _95
REMARK   41  A    between atoms: _94  and  _97
REMARK   42  A    between atoms: _100  and  _102
REMARK   43  A    between atoms: _102  and  _103
REMARK   44  A    between atoms: _102  and  _105
REMARK   45  A    between atoms: _105  and  _106
REMARK   46  A    between atoms: _106  and  _107
REMARK   47  A    between atoms: _107  and  _108
REMARK   48  A    between atoms: _108  and  _109
REMARK   49  A    between atoms: _113  and  _115
REMARK   50  A    between atoms: _115  and  _116
REMARK   51  A    between atoms: _115  and  _118
REMARK   52  A    between atoms: _118  and  _119
REMARK   53  A    between atoms: _119  and  _120
REMARK   54  A    between atoms: _122  and  _124
REMARK   55  A    between atoms: _124  and  _125
REMARK   56  A    between atoms: _124  and  _127
REMARK   57  A    between atoms: _127  and  _128
REMARK   58  A    between atoms: _131  and  _133
REMARK   59  A    between atoms: _133  and  _134
REMARK   60  A    between atoms: _136  and  _138
REMARK   61  A    between atoms: _138  and  _139
REMARK   62  A    between atoms: _141  and  _143
REMARK   63  A    between atoms: _143  and  _144
REMARK   64  A    between atoms: _143  and  _146
REMARK   65  A    between atoms: _146  and  _147
REMARK   66  A    between atoms: _150  and  _152
REMARK   67  A    between atoms: _152  and  _153
REMARK   68  A    between atoms: _155  and  _157
REMARK   69  A    between atoms: _157  and  _158
REMARK   70  A    between atoms: _160  and  _162
REMARK   71  A    between atoms: _162  and  _163
REMARK   72  A    between atoms: _162  and  _165
REMARK   73  A    between atoms: _165  and  _166
REMARK   74  A    between atoms: _169  and  _171
REMARK   75  A    between atoms: _171  and  _172
REMARK   76  A    between atoms: _171  and  _174
REMARK   77  A    between atoms: _177  and  _179
REMARK   78  A    between atoms: _179  and  _180
REMARK   79  A    between atoms: _179  and  _182
REMARK   80  A    between atoms: _182  and  _183
REMARK   81  A    between atoms: _186  and  _188
REMARK   82  A    between atoms: _188  and  _189
REMARK   83  A    between atoms: _188  and  _191
REMARK   84  A    between atoms: _191  and  _192
REMARK   85  A    between atoms: _196  and  _197
REMARK   86  A    between atoms: _202  and  _204
REMARK   87  A    between atoms: _204  and  _205
REMARK   88  A    between atoms: _204  and  _207
REMARK   89  A    between atoms: _210  and  _212
REMARK   90  A    between atoms: _212  and  _213
REMARK   91  A    between atoms: _212  and  _215
REMARK   92  A    between atoms: _215  and  _216
REMARK   93  A    between atoms: _221  and  _223
REMARK   94  A    between atoms: _223  and  _224
REMARK   95  A    between atoms: _223  and  _226
REMARK   96  A    between atoms: _226  and  _227
REMARK   97  A    between atoms: _230  and  _232
REMARK   98  A    between atoms: _232  and  _233
REMARK   99  A    between atoms: _232  and  _235
REMARK  100  A    between atoms: _235  and  _236
REMARK  101  A    between atoms: _239  and  _241
REMARK  102  A    between atoms: _241  and  _242
REMARK  103  A    between atoms: _244  and  _246
REMARK  104  A    between atoms: _246  and  _247
REMARK  105  A    between atoms: _246  and  _249
REMARK  106  A    between atoms: _249  and  _250
REMARK  107  A    between atoms: _250  and  _251
REMARK  108  A    between atoms: _251  and  _252
REMARK  109  A    between atoms: _261  and  _263
REMARK  110  A    between atoms: _263  and  _264
REMARK  111  A    between atoms: _263  and  _266
REMARK  112  A    between atoms: _266  and  _267
REMARK  113  A    between atoms: _272  and  _274
REMARK  114  A    between atoms: _274  and  _275
REMARK  115  A    between atoms: _274  and  _277
REMARK  116  A    between atoms: _277  and  _278
REMARK  117  A    between atoms: _278  and  _279
REMARK  118  A    between atoms: _279  and  _280
REMARK  119  A    between atoms: _289  and  _291
REMARK  120  A    between atoms: _291  and  _292
REMARK  121  A    between atoms: _291  and  _294
REMARK  122  A    between atoms: _294  and  _295
REMARK  123  A    between atoms: _298  and  _300
REMARK  124  A    between atoms: _300  and  _301
REMARK  125  A    between atoms: _300  and  _303
REMARK  126  A    between atoms: _303  and  _304
REMARK  127  A    between atoms: _307  and  _309
REMARK  128  A    between atoms: _309  and  _310
REMARK  129  A    between atoms: _309  and  _312
REMARK  130  A    between atoms: _312  and  _313
REMARK  131  A    between atoms: _316  and  _318
REMARK  132  A    between atoms: _318  and  _319
REMARK  133  A    between atoms: _318  and  _321
REMARK  134  A    between atoms: _321  and  _322
REMARK  135  A    between atoms: _325  and  _327
REMARK  136  A    between atoms: _327  and  _328
REMARK  137  A    between atoms: _330  and  _332
REMARK  138  A    between atoms: _332  and  _333
REMARK  139  A    between atoms: _336  and  _338
REMARK  140  A    between atoms: _338  and  _339
REMARK  141  A    between atoms: _338  and  _341
REMARK  142  A    between atoms: _341  and  _342
REMARK  143  A    between atoms: _345  and  _347
REMARK  144  A    between atoms: _347  and  _348
REMARK  145  A    between atoms: _347  and  _350
REMARK  146  A    between atoms: _350  and  _351
REMARK  147  A    between atoms: _354  and  _356
REMARK  148  A    between atoms: _356  and  _357
REMARK  149  A    between atoms: _356  and  _359
REMARK  150  A    between atoms: _359  and  _360
REMARK  151  A    between atoms: _363  and  _365
REMARK  152  A    between atoms: _365  and  _366
REMARK  153  A    between atoms: _365  and  _368
REMARK  154  A    between atoms: _371  and  _373
REMARK  155  A    between atoms: _373  and  _374
REMARK  156  A    between atoms: _373  and  _376
REMARK  157  A    between atoms: _376  and  _377
REMARK  158  A    between atoms: _377  and  _378
REMARK  159  A    between atoms: _378  and  _379
REMARK  160  A    between atoms: _379  and  _380
REMARK  161  A    between atoms: _384  and  _386
REMARK  162  A    between atoms: _386  and  _387
REMARK  163  A    between atoms: _386  and  _389
REMARK  164  A    between atoms: _389  and  _390
REMARK  165  A    between atoms: _390  and  _391
REMARK  166  A    between atoms: _393  and  _395
REMARK  167  A    between atoms: _395  and  _396
REMARK  168  A    between atoms: _395  and  _398
REMARK  169  A    between atoms: _398  and  _399
REMARK  170  A    between atoms: _402  and  _404
REMARK  171  A    between atoms: _404  and  _405
REMARK  172  A    between atoms: _407  and  _409
REMARK  173  A    between atoms: _409  and  _410
REMARK  174  A    between atoms: _412  and  _414
REMARK  175  A    between atoms: _414  and  _415
REMARK  176  A    between atoms: _414  and  _417
REMARK  177  A    between atoms: _417  and  _418
REMARK  178  A    between atoms: _421  and  _423
REMARK  179  A    between atoms: _423  and  _424
REMARK  180  A    between atoms: _426  and  _428
REMARK  181  A    between atoms: _428  and  _429
REMARK  182  A    between atoms: _431  and  _433
REMARK  183  A    between atoms: _433  and  _434
REMARK  184  A    between atoms: _433  and  _436
REMARK  185  A    between atoms: _436  and  _437
REMARK  186  A    between atoms: _443  and  _445
REMARK  187  A    between atoms: _445  and  _446
REMARK  188  A    between atoms: _445  and  _448
REMARK  189  A    between atoms: _448  and  _449
REMARK  190  A    between atoms: _452  and  _454
REMARK  191  A    between atoms: _454  and  _455
REMARK  192  A    between atoms: _454  and  _457
REMARK  193  A    between atoms: _460  and  _462
REMARK  194  A    between atoms: _462  and  _463
REMARK  195  A    between atoms: _462  and  _465
REMARK  196  A    between atoms: _465  and  _466
REMARK  197  A    between atoms: _469  and  _471
REMARK  198  A    between atoms: _471  and  _472
REMARK  199  A    between atoms: _471  and  _474
REMARK  200  A    between atoms: _474  and  _475
REMARK  201  A    between atoms: _479  and  _480
REMARK  202  A    between atoms: _485  and  _487
REMARK  203  A    between atoms: _487  and  _488
REMARK  204  A    between atoms: _487  and  _490
REMARK  205  A    between atoms: _493  and  _495
REMARK  206  A    between atoms: _495  and  _496
REMARK  207  A    between atoms: _495  and  _498
REMARK  208  A    between atoms: _498  and  _499
REMARK  209  A    between atoms: _504  and  _506
REMARK  210  A    between atoms: _506  and  _507
REMARK  211  A    between atoms: _506  and  _509
REMARK  212  A    between atoms: _509  and  _510
REMARK  213  A    between atoms: _513  and  _515
REMARK  214  A    between atoms: _515  and  _516
REMARK  215  A    between atoms: _515  and  _518
REMARK  216  A    between atoms: _518  and  _519
REMARK  217  A    between atoms: _522  and  _524
REMARK  218  A    between atoms: _524  and  _525
REMARK  219  A    between atoms: _527  and  _529
REMARK  220  A    between atoms: _529  and  _530
REMARK  221  A    between atoms: _529  and  _532
REMARK  222  A    between atoms: _532  and  _533
REMARK  223  A    between atoms: _533  and  _534
REMARK  224  A    between atoms: _534  and  _535
REMARK  225  A    between atoms: _544  and  _546
REMARK  226  A    between atoms: _546  and  _547
REMARK  227  A    between atoms: _546  and  _549
REMARK  228  A    between atoms: _549  and  _550
REMARK                            x       y       z     vdW  Elec       q    Type
REMARK                         _______ _______ _______ _____ _____    ______ ____
ROOT
ATOM      1  CA  ILE A   1      26.431  33.599   3.942  0.00  0.00    +0.133 C 
ENDROOT
BRANCH   1   2
ATOM      2  N   ILE A   1      25.181  32.841   3.878  0.00  0.00    -0.239 NA
ATOM      3  H   ILE A   1      25.147  31.895   4.308  0.00  0.00    +0.142 HD
ENDBRANCH   1   2
BRANCH   1   4
ATOM      4  CB  ILE A   1      26.724  34.108   5.378  0.00  0.00    +0.023 C 
ATOM      5  CG2 ILE A   1      25.619  35.058   5.831  0.00  0.00    +0.002 C 
BRANCH   4   6
ATOM      6  CG1 ILE A   1      26.882  32.936   6.360  0.00  0.00    +0.002 C 
ATOM      7  CD1 ILE A   1      27.456  33.331   7.707  0.00  0.00    +0.000 C 
ENDBRANCH   4   6
ENDBRANCH   1   4
BRANCH   1   8
ATOM      8  C   ILE A   1      27.594  32.724   3.495  0.00  0.00    +0.224 C 
ATOM      9  O   ILE A   1      27.500  31.495   3.488  0.00  0.00    -0.287 OA
ENDBRANCH   1   8
TORSDOF 4
REMARK  Name = ../refined-set-2016/2qi4/2qi4_pocket.pdb
REMARK  228 active torsions:
REMARK  status: ('A' for Active; 'I' for Inactive)
REMARK    1  A    between atoms: _1  and  _3
REMARK    2  A    between atoms: _3  and  _4
REMARK    3  A    between atoms: _3  and  _6
REMARK    4  A    between atoms: _6  and  _7
REMARK    5  A    between atoms: _7  and  _8
REMARK    6  A    between atoms: _8  and  _9
REMARK    7  A    between atoms: _18  and  _20
REMARK    8  A    between atoms: _20  and  _21
REMARK    9  A    between atoms: _20  and  _23
REMARK   10  A    between atoms: _23  and  _24
REMARK   11  A    between atoms: _27  and  _29
REMARK   12  A    between atoms: _29  and  _30
REMARK   13  A    between atoms: _29  and  _32
REMARK   14  A    between atoms: _32  and  _33
REMARK   15  A    between atoms: _36  and  _38
REMARK   16  A    between atoms: _38  and  _39
REMARK   17  A    between atoms: _38  and  _41
REMARK   18  A    between atoms: _41  and  _42
REMARK   19  A    between atoms: _45  and  _47
REMARK   20  A    between atoms: _47  and  _48
REMARK   21  A    between atoms: _47  and  _50
REMARK   22  A    between atoms: _50  and  _51
REMARK   23  A    between atoms: _54  and  _56
REMARK   24  A    between atoms: _56  and  _57
REMARK   25  A    between atoms: _59  and  _61
REMARK   26  A    between atoms: _61  and  _62
REMARK   27  A    between atoms: _65  and  _67
REMARK   28  A    between atoms: _67  and  _68
REMARK   29  A    between atoms: _67  and  _70
REMARK   30  A    between atoms: _70  and  _71
REMARK   31  A    between atoms: _74  and  _76
REMARK   32  A    between atoms: _76  and  _77
REMARK   33  A    between atoms: _76  and  _79
REMARK   34  A    between atoms: _79  and  _80
REMARK   35  A    between atoms: _83  and  _85
REMARK   36  A    between atoms: _85  and  _86
REMARK   37  A    between atoms: _85  and  _88
REMARK   38  A    between atoms: _88  and  _89
REMARK   39  A    between atoms: _92  and  _94
REMARK   40  A    between atoms: _94  and  _95
REMARK   41  A    between atoms: _94  and  _97
REMARK   42  A    between atoms: _100  and  _102
REMARK   43  A    between atoms: _102  and  _103
REMARK   44  A    between atoms: _102  and  _105
REMARK   45  A    between atoms: _105  and  _106
REMARK   46  A    between atoms: _106  and  _107
REMARK   47  A    between atoms: _107  and  _108
REMARK   48  A    between atoms: _108  and  _109
REMARK   49  A    between atoms: _113  and  _115
REMARK   50  A    between atoms: _115  and  _116
REMARK   51  A    between atoms: _115  and  _118
REMARK   52  A    between atoms: _118  and  _119
REMARK   53  A    between atoms: _119  and  _120
REMARK   54  A    between atoms: _122  and  _124
REMARK   55  A    between atoms: _124  and  _125
REMARK   56  A    between atoms: _124  and  _127
REMARK   57  A    between atoms: _127  and  _128
REMARK   58  A    between atoms: _131  and  _133
REMARK   59  A    between atoms: _133  and  _134
REMARK   60  A    between atoms: _136  and  _138
REMARK   61  A    between atoms: _138  and  _139
REMARK   62  A    between atoms: _141  and  _143
REMARK   63  A    between atoms: _143  and  _144
REMARK   64  A    between atoms: _143  and  _146
REMARK   65  A    between atoms: _146  and  _147
REMARK   66  A    between atoms: _150  and  _152
REMARK   67  A    between atoms: _152  and  _153
REMARK   68  A    between atoms: _155  and  _157
REMARK   69  A    between atoms: _157  and  _158
REMARK   70  A    between atoms: _160  and  _162
REMARK   71  A    between atoms: _162  and  _163
REMARK   72  A    between atoms: _162  and  _165
REMARK   73  A    between atoms: _165  and  _166
REMARK   74  A    between atoms: _169  and  _171
REMARK   75  A    between atoms: _171  and  _172
REMARK   76  A    between atoms: _171  and  _174
REMARK   77  A    between atoms: _177  and  _179
REMARK   78  A    between atoms: _179  and  _180
REMARK   79  A    between atoms: _179  and  _182
REMARK   80  A    between atoms: _182  and  _183
REMARK   81  A    between atoms: _186  and  _188
REMARK   82  A    between atoms: _188  and  _189
REMARK   83  A    between atoms: _188  and  _191
REMARK   84  A    between atoms: _191  and  _192
REMARK   85  A    between atoms: _196  and  _197
REMARK   86  A    between atoms: _202  and  _204
REMARK   87  A    between atoms: _204  and  _205
REMARK   88  A    between atoms: _204  and  _207
REMARK   89  A    between atoms: _210  and  _212
REMARK   90  A    between atoms: _212  and  _213
REMARK   91  A    between atoms: _212  and  _215
REMARK   92  A    between atoms: _215  and  _216
REMARK   93  A    between atoms: _221  and  _223
REMARK   94  A    between atoms: _223  and  _224
REMARK   95  A    between atoms: _223  and  _226
REMARK   96  A    between atoms: _226  and  _227
REMARK   97  A    between atoms: _230  and  _232
REMARK   98  A    between atoms: _232  and  _233
REMARK   99  A    between atoms: _232  and  _235
REMARK  100  A    between atoms: _235  and  _236
REMARK  101  A    between atoms: _239  and  _241
REMARK  102  A    between atoms: _241  and  _242
REMARK  103  A    between atoms: _244  and  _246
REMARK  104  A    between atoms: _246  and  _247
REMARK  105  A    between atoms: _246  and  _249
REMARK  106  A    between atoms: _249  and  _250
REMARK  107  A    between atoms: _250  and  _251
REMARK  108  A    between atoms: _251  and  _252
REMARK  109  A    between atoms: _261  and  _263
REMARK  110  A    between atoms: _263  and  _264
REMARK  111  A    between atoms: _263  and  _266
REMARK  112  A    between atoms: _266  and  _267
REMARK  113  A    between atoms: _272  and  _274
REMARK  114  A    between atoms: _274  and  _275
REMARK  115  A    between atoms: _274  and  _277
REMARK  116  A    between atoms: _277  and  _278
REMARK  117  A    between atoms: _278  and  _279
REMARK  118  A    between atoms: _279  and  _280
REMARK  119  A    between atoms: _289  and  _291
REMARK  120  A    between atoms: _291  and  _292
REMARK  121  A    between atoms: _291  and  _294
REMARK  122  A    between atoms: _294  and  _295
REMARK  123  A    between atoms: _298  and  _300
REMARK  124  A    between atoms: _300  and  _301
REMARK  125  A    between atoms: _300  and  _303
REMARK  126  A    between atoms: _303  and  _304
REMARK  127  A    between atoms: _307  and  _309
REMARK  128  A    between atoms: _309  and  _310
REMARK  129  A    between atoms: _309  and  _312
REMARK  130  A    between atoms: _312  and  _313
REMARK  131  A    between atoms: _316  and  _318
REMARK  132  A    between atoms: _318  and  _319
REMARK  133  A    between atoms: _318  and  _321
REMARK  134  A    between atoms: _321  and  _322
REMARK  135  A    between atoms: _325  and  _327
REMARK  136  A    between atoms: _327  and  _328
REMARK  137  A    between atoms: _330  and  _332
REMARK  138  A    between atoms: _332  and  _333
REMARK  139  A    between atoms: _336  and  _338
REMARK  140  A    between atoms: _338  and  _339
REMARK  141  A    between atoms: _338  and  _341
REMARK  142  A    between atoms: _341  and  _342
REMARK  143  A    between atoms: _345  and  _347
REMARK  144  A    between atoms: _347  and  _348
REMARK  145  A    between atoms: _347  and  _350
REMARK  146  A    between atoms: _350  and  _351
REMARK  147  A    between atoms: _354  and  _356
REMARK  148  A    between atoms: _356  and  _357
REMARK  149  A    between atoms: _356  and  _359
REMARK  150  A    between atoms: _359  and  _360
REMARK  151  A    between atoms: _363  and  _365
REMARK  152  A    between atoms: _365  and  _366
REMARK  153  A    between atoms: _365  and  _368
REMARK  154  A    between atoms: _371  and  _373
REMARK  155  A    between atoms: _373  and  _374
REMARK  156  A    between atoms: _373  and  _376
REMARK  157  A    between atoms: _376  and  _377
REMARK  158  A    between atoms: _377  and  _378
REMARK  159  A    between atoms: _378  and  _379
REMARK  160  A    between atoms: _379  and  _380
REMARK  161  A    between atoms: _384  and  _386
REMARK  162  A    between atoms: _386  and  _387
REMARK  163  A    between atoms: _386  and  _389
REMARK  164  A    between atoms: _389  and  _390
REMARK  165  A    between atoms: _390  and  _391
REMARK  166  A    between atoms: _393  and  _395
REMARK  167  A    between atoms: _395  and  _396
REMARK  168  A    between atoms: _395  and  _398
REMARK  169  A    between atoms: _398  and  _399
REMARK  170  A    between atoms: _402  and  _404
REMARK  171  A    between atoms: _404  and  _405
REMARK  172  A    between atoms: _407  and  _409
REMARK  173  A    between atoms: _409  and  _410
REMARK  174  A    between atoms: _412  and  _414
REMARK  175  A    between atoms: _414  and  _415
REMARK  176  A    between atoms: _414  and  _417
REMARK  177  A    between atoms: _417  and  _418
REMARK  178  A    between atoms: _421  and  _423
REMARK  179  A    between atoms: _423  and  _424
REMARK  180  A    between atoms: _426  and  _428
REMARK  181  A    between atoms: _428  and  _429
REMARK  182  A    between atoms: _431  and  _433
REMARK  183  A    between atoms: _433  and  _434
REMARK  184  A    between atoms: _433  and  _436
REMARK  185  A    between atoms: _436  and  _437
REMARK  186  A    between atoms: _443  and  _445
REMARK  187  A    between atoms: _445  and  _446
REMARK  188  A    between atoms: _445  and  _448
REMARK  189  A    between atoms: _448  and  _449
REMARK  190  A    between atoms: _452  and  _454
REMARK  191  A    between atoms: _454  and  _455
REMARK  192  A    between atoms: _454  and  _457
REMARK  193  A    between atoms: _460  and  _462
REMARK  194  A    between atoms: _462  and  _463
REMARK  195  A    between atoms: _462  and  _465
REMARK  196  A    between atoms: _465  and  _466
REMARK  197  A    between atoms: _469  and  _471
REMARK  198  A    between atoms: _471  and  _472
REMARK  199  A    between atoms: _471  and  _474
REMARK  200  A    between atoms: _474  and  _475
REMARK  201  A    between atoms: _479  and  _480
REMARK  202  A    between atoms: _485  and  _487
REMARK  203  A    between atoms: _487  and  _488
REMARK  204  A    between atoms: _487  and  _490
REMARK  205  A    between atoms: _493  and  _495
REMARK  206  A    between atoms: _495  and  _496
REMARK  207  A    between atoms: _495  and  _498
REMARK  208  A    between atoms: _498  and  _499
REMARK  209  A    between atoms: _504  and  _506
REMARK  210  A    between atoms: _506  and  _507
REMARK  211  A    between atoms: _506  and  _509
REMARK  212  A    between atoms: _509  and  _510
REMARK  213  A    between atoms: _513  and  _515
REMARK  214  A    between atoms: _515  and  _516
REMARK  215  A    between atoms: _515  and  _518
REMARK  216  A    between atoms: _518  and  _519
REMARK  217  A    between atoms: _522  and  _524
REMARK  218  A    between atoms: _524  and  _525
REMARK  219  A    between atoms: _527  and  _529
REMARK  220  A    between atoms: _529  and  _530
REMARK  221  A    between atoms: _529  and  _532
REMARK  222  A    between atoms: _532  and  _533
REMARK  223  A    between atoms: _533  and  _534
REMARK  224  A    between atoms: _534  and  _535
REMARK  225  A    between atoms: _544  and  _546
REMARK  226  A    between atoms: _546  and  _547
REMARK  227  A    between atoms: _546  and  _549
REMARK  228  A    between atoms: _549  and  _550
REMARK                            x       y       z     vdW  Elec       q    Type
REMARK                         _______ _______ _______ _____ _____    ______ ____
ROOT
ATOM      1  CA  VAL A   1      32.255  31.280   5.543  0.00  0.00    +0.133 C 
ENDROOT
BRANCH   1   2
ATOM      2  CB  VAL A   1      31.576  30.471   6.675  0.00  0.00    +0.023 C 
ATOM      3  CG2 VAL A   1      30.407  31.255   7.256  0.00  0.00    +0.002 C 
ATOM      4  CG1 VAL A   1      31.113  29.107   6.178  0.00  0.00    +0.002 C 
ENDBRANCH   1   2
BRANCH   1   5
ATOM      5  N   VAL A   1      31.364  31.478   4.404  0.00  0.00    -0.239 NA
ATOM      6  H   VAL A   1      31.170  30.672   3.776  0.00  0.00    +0.142 HD
ENDBRANCH   1   5
BRANCH   1   7
ATOM      7  C   VAL A   1      33.523  30.566   5.095  0.00  0.00    +0.224 C 
ATOM      8  O   VAL A   1      33.570  30.013   3.994  0.00  0.00    -0.287 OA
ENDBRANCH   1   7
TORSDOF 3
REMARK  Name = ../refined-set-2016/2qi4/2qi4_pocket.pdb
REMARK  228 active torsions:
REMARK  status: ('A' for Active; 'I' for Inactive)
REMARK    1  A    between atoms: _1  and  _3
REMARK    2  A    between atoms: _3  and  _4
REMARK    3  A    between atoms: _3  and  _6
REMARK    4  A    between atoms: _6  and  _7
REMARK    5  A    between atoms: _7  and  _8
REMARK    6  A    between atoms: _8  and  _9
REMARK    7  A    between atoms: _18  and  _20
REMARK    8  A    between atoms: _20  and  _21
REMARK    9  A    between atoms: _20  and  _23
REMARK   10  A    between atoms: _23  and  _24
REMARK   11  A    between atoms: _27  and  _29
REMARK   12  A    between atoms: _29  and  _30
REMARK   13  A    between atoms: _29  and  _32
REMARK   14  A    between atoms: _32  and  _33
REMARK   15  A    between atoms: _36  and  _38
REMARK   16  A    between atoms: _38  and  _39
REMARK   17  A    between atoms: _38  and  _41
REMARK   18  A    between atoms: _41  and  _42
REMARK   19  A    between atoms: _45  and  _47
REMARK   20  A    between atoms: _47  and  _48
REMARK   21  A    between atoms: _47  and  _50
REMARK   22  A    between atoms: _50  and  _51
REMARK   23  A    between atoms: _54  and  _56
REMARK   24  A    between atoms: _56  and  _57
REMARK   25  A    between atoms: _59  and  _61
REMARK   26  A    between atoms: _61  and  _62
REMARK   27  A    between atoms: _65  and  _67
REMARK   28  A    between atoms: _67  and  _68
REMARK   29  A    between atoms: _67  and  _70
REMARK   30  A    between atoms: _70  and  _71
REMARK   31  A    between atoms: _74  and  _76
REMARK   32  A    between atoms: _76  and  _77
REMARK   33  A    between atoms: _76  and  _79
REMARK   34  A    between atoms: _79  and  _80
REMARK   35  A    between atoms: _83  and  _85
REMARK   36  A    between atoms: _85  and  _86
REMARK   37  A    between atoms: _85  and  _88
REMARK   38  A    between atoms: _88  and  _89
REMARK   39  A    between atoms: _92  and  _94
REMARK   40  A    between atoms: _94  and  _95
REMARK   41  A    between atoms: _94  and  _97
REMARK   42  A    between atoms: _100  and  _102
REMARK   43  A    between atoms: _102  and  _103
REMARK   44  A    between atoms: _102  and  _105
REMARK   45  A    between atoms: _105  and  _106
REMARK   46  A    between atoms: _106  and  _107
REMARK   47  A    between atoms: _107  and  _108
REMARK   48  A    between atoms: _108  and  _109
REMARK   49  A    between atoms: _113  and  _115
REMARK   50  A    between atoms: _115  and  _116
REMARK   51  A    between atoms: _115  and  _118
REMARK   52  A    between atoms: _118  and  _119
REMARK   53  A    between atoms: _119  and  _120
REMARK   54  A    between atoms: _122  and  _124
REMARK   55  A    between atoms: _124  and  _125
REMARK   56  A    between atoms: _124  and  _127
REMARK   57  A    between atoms: _127  and  _128
REMARK   58  A    between atoms: _131  and  _133
REMARK   59  A    between atoms: _133  and  _134
REMARK   60  A    between atoms: _136  and  _138
REMARK   61  A    between atoms: _138  and  _139
REMARK   62  A    between atoms: _141  and  _143
REMARK   63  A    between atoms: _143  and  _144
REMARK   64  A    between atoms: _143  and  _146
REMARK   65  A    between atoms: _146  and  _147
REMARK   66  A    between atoms: _150  and  _152
REMARK   67  A    between atoms: _152  and  _153
REMARK   68  A    between atoms: _155  and  _157
REMARK   69  A    between atoms: _157  and  _158
REMARK   70  A    between atoms: _160  and  _162
REMARK   71  A    between atoms: _162  and  _163
REMARK   72  A    between atoms: _162  and  _165
REMARK   73  A    between atoms: _165  and  _166
REMARK   74  A    between atoms: _169  and  _171
REMARK   75  A    between atoms: _171  and  _172
REMARK   76  A    between atoms: _171  and  _174
REMARK   77  A    between atoms: _177  and  _179
REMARK   78  A    between atoms: _179  and  _180
REMARK   79  A    between atoms: _179  and  _182
REMARK   80  A    between atoms: _182  and  _183
REMARK   81  A    between atoms: _186  and  _188
REMARK   82  A    between atoms: _188  and  _189
REMARK   83  A    between atoms: _188  and  _191
REMARK   84  A    between atoms: _191  and  _192
REMARK   85  A    between atoms: _196  and  _197
REMARK   86  A    between atoms: _202  and  _204
REMARK   87  A    between atoms: _204  and  _205
REMARK   88  A    between atoms: _204  and  _207
REMARK   89  A    between atoms: _210  and  _212
REMARK   90  A    between atoms: _212  and  _213
REMARK   91  A    between atoms: _212  and  _215
REMARK   92  A    between atoms: _215  and  _216
REMARK   93  A    between atoms: _221  and  _223
REMARK   94  A    between atoms: _223  and  _224
REMARK   95  A    between atoms: _223  and  _226
REMARK   96  A    between atoms: _226  and  _227
REMARK   97  A    between atoms: _230  and  _232
REMARK   98  A    between atoms: _232  and  _233
REMARK   99  A    between atoms: _232  and  _235
REMARK  100  A    between atoms: _235  and  _236
REMARK  101  A    between atoms: _239  and  _241
REMARK  102  A    between atoms: _241  and  _242
REMARK  103  A    between atoms: _244  and  _246
REMARK  104  A    between atoms: _246  and  _247
REMARK  105  A    between atoms: _246  and  _249
REMARK  106  A    between atoms: _249  and  _250
REMARK  107  A    between atoms: _250  and  _251
REMARK  108  A    between atoms: _251  and  _252
REMARK  109  A    between atoms: _261  and  _263
REMARK  110  A    between atoms: _263  and  _264
REMARK  111  A    between atoms: _263  and  _266
REMARK  112  A    between atoms: _266  and  _267
REMARK  113  A    between atoms: _272  and  _274
REMARK  114  A    between atoms: _274  and  _275
REMARK  115  A    between atoms: _274  and  _277
REMARK  116  A    between atoms: _277  and  _278
REMARK  117  A    between atoms: _278  and  _279
REMARK  118  A    between atoms: _279  and  _280
REMARK  119  A    between atoms: _289  and  _291
REMARK  120  A    between atoms: _291  and  _292
REMARK  121  A    between atoms: _291  and  _294
REMARK  122  A    between atoms: _294  and  _295
REMARK  123  A    between atoms: _298  and  _300
REMARK  124  A    between atoms: _300  and  _301
REMARK  125  A    between atoms: _300  and  _303
REMARK  126  A    between atoms: _303  and  _304
REMARK  127  A    between atoms: _307  and  _309
REMARK  128  A    between atoms: _309  and  _310
REMARK  129  A    between atoms: _309  and  _312
REMARK  130  A    between atoms: _312  and  _313
REMARK  131  A    between atoms: _316  and  _318
REMARK  132  A    between atoms: _318  and  _319
REMARK  133  A    between atoms: _318  and  _321
REMARK  134  A    between atoms: _321  and  _322
REMARK  135  A    between atoms: _325  and  _327
REMARK  136  A    between atoms: _327  and  _328
REMARK  137  A    between atoms: _330  and  _332
REMARK  138  A    between atoms: _332  and  _333
REMARK  139  A    between atoms: _336  and  _338
REMARK  140  A    between atoms: _338  and  _339
REMARK  141  A    between atoms: _338  and  _341
REMARK  142  A    between atoms: _341  and  _342
REMARK  143  A    between atoms: _345  and  _347
REMARK  144  A    between atoms: _347  and  _348
REMARK  145  A    between atoms: _347  and  _350
REMARK  146  A    between atoms: _350  and  _351
REMARK  147  A    between atoms: _354  and  _356
REMARK  148  A    between atoms: _356  and  _357
REMARK  149  A    between atoms: _356  and  _359
REMARK  150  A    between atoms: _359  and  _360
REMARK  151  A    between atoms: _363  and  _365
REMARK  152  A    between atoms: _365  and  _366
REMARK  153  A    between atoms: _365  and  _368
REMARK  154  A    between atoms: _371  and  _373
REMARK  155  A    between atoms: _373  and  _374
REMARK  156  A    between atoms: _373  and  _376
REMARK  157  A    between atoms: _376  and  _377
REMARK  158  A    between atoms: _377  and  _378
REMARK  159  A    between atoms: _378  and  _379
REMARK  160  A    between atoms: _379  and  _380
REMARK  161  A    between atoms: _384  and  _386
REMARK  162  A    between atoms: _386  and  _387
REMARK  163  A    between atoms: _386  and  _389
REMARK  164  A    between atoms: _389  and  _390
REMARK  165  A    between atoms: _390  and  _391
REMARK  166  A    between atoms: _393  and  _395
REMARK  167  A    between atoms: _395  and  _396
REMARK  168  A    between atoms: _395  and  _398
REMARK  169  A    between atoms: _398  and  _399
REMARK  170  A    between atoms: _402  and  _404
REMARK  171  A    between atoms: _404  and  _405
REMARK  172  A    between atoms: _407  and  _409
REMARK  173  A    between atoms: _409  and  _410
REMARK  174  A    between atoms: _412  and  _414
REMARK  175  A    between atoms: _414  and  _415
REMARK  176  A    between atoms: _414  and  _417
REMARK  177  A    between atoms: _417  and  _418
REMARK  178  A    between atoms: _421  and  _423
REMARK  179  A    between atoms: _423  and  _424
REMARK  180  A    between atoms: _426  and  _428
REMARK  181  A    between atoms: _428  and  _429
REMARK  182  A    between atoms: _431  and  _433
REMARK  183  A    between atoms: _433  and  _434
REMARK  184  A    between atoms: _433  and  _436
REMARK  185  A    between atoms: _436  and  _437
REMARK  186  A    between atoms: _443  and  _445
REMARK  187  A    between atoms: _445  and  _446
REMARK  188  A    between atoms: _445  and  _448
REMARK  189  A    between atoms: _448  and  _449
REMARK  190  A    between atoms: _452  and  _454
REMARK  191  A    between atoms: _454  and  _455
REMARK  192  A    between atoms: _454  and  _457
REMARK  193  A    between atoms: _460  and  _462
REMARK  194  A    between atoms: _462  and  _463
REMARK  195  A    between atoms: _462  and  _465
REMARK  196  A    between atoms: _465  and  _466
REMARK  197  A    between atoms: _469  and  _471
REMARK  198  A    between atoms: _471  and  _472
REMARK  199  A    between atoms: _471  and  _474
REMARK  200  A    between atoms: _474  and  _475
REMARK  201  A    between atoms: _479  and  _480
REMARK  202  A    between atoms: _485  and  _487
REMARK  203  A    between atoms: _487  and  _488
REMARK  204  A    between atoms: _487  and  _490
REMARK  205  A    between atoms: _493  and  _495
REMARK  206  A    between atoms: _495  and  _496
REMARK  207  A    between atoms: _495  and  _498
REMARK  208  A    between atoms: _498  and  _499
REMARK  209  A    between atoms: _504  and  _506
REMARK  210  A    between atoms: _506  and  _507
REMARK  211  A    between atoms: _506  and  _509
REMARK  212  A    between atoms: _509  and  _510
REMARK  213  A    between atoms: _513  and  _515
REMARK  214  A    between atoms: _515  and  _516
REMARK  215  A    between atoms: _515  and  _518
REMARK  216  A    between atoms: _518  and  _519
REMARK  217  A    between atoms: _522  and  _524
REMARK  218  A    between atoms: _524  and  _525
REMARK  219  A    between atoms: _527  and  _529
REMARK  220  A    between atoms: _529  and  _530
REMARK  221  A    between atoms: _529  and  _532
REMARK  222  A    between atoms: _532  and  _533
REMARK  223  A    between atoms: _533  and  _534
REMARK  224  A    between atoms: _534  and  _535
REMARK  225  A    between atoms: _544  and  _546
REMARK  226  A    between atoms: _546  and  _547
REMARK  227  A    between atoms: _546  and  _549
REMARK  228  A    between atoms: _549  and  _550
REMARK                            x       y       z     vdW  Elec       q    Type
REMARK                         _______ _______ _______ _____ _____    ______ ____
ROOT
ATOM      1  CA  LEU A   1      33.438  28.037  10.376  0.00  0.00    +0.133 C 
ENDROOT
BRANCH   1   2
ATOM      2  N   LEU A   1      33.716  27.163  11.498  0.00  0.00    -0.239 NA
ATOM      3  H   LEU A   1      32.980  27.035  12.221  0.00  0.00    +0.142 HD
ENDBRANCH   1   2
BRANCH   1   4
ATOM      4  C   LEU A   1      33.631  29.484  10.829  0.00  0.00    +0.224 C 
ATOM      5  O   LEU A   1      33.211  29.862  11.924  0.00  0.00    -0.287 OA
ENDBRANCH   1   4
BRANCH   1   6
ATOM      6  CB  LEU A   1      32.005  27.822   9.870  0.00  0.00    +0.025 C 
BRANCH   6   7
ATOM      7  CG  LEU A   1      31.569  26.371   9.636  0.00  0.00    +0.002 C 
ATOM      8  CD2 LEU A   1      30.136  26.318   9.110  0.00  0.00    +0.000 C 
ATOM      9  CD1 LEU A   1      32.508  25.675   8.671  0.00  0.00    +0.000 C 
ENDBRANCH   6   7
ENDBRANCH   1   6
TORSDOF 4
REMARK  Name = ../refined-set-2016/2qi4/2qi4_pocket.pdb
REMARK  228 active torsions:
REMARK  status: ('A' for Active; 'I' for Inactive)
REMARK    1  A    between atoms: _1  and  _3
REMARK    2  A    between atoms: _3  and  _4
REMARK    3  A    between atoms: _3  and  _6
REMARK    4  A    between atoms: _6  and  _7
REMARK    5  A    between atoms: _7  and  _8
REMARK    6  A    between atoms: _8  and  _9
REMARK    7  A    between atoms: _18  and  _20
REMARK    8  A    between atoms: _20  and  _21
REMARK    9  A    between atoms: _20  and  _23
REMARK   10  A    between atoms: _23  and  _24
REMARK   11  A    between atoms: _27  and  _29
REMARK   12  A    between atoms: _29  and  _30
REMARK   13  A    between atoms: _29  and  _32
REMARK   14  A    between atoms: _32  and  _33
REMARK   15  A    between atoms: _36  and  _38
REMARK   16  A    between atoms: _38  and  _39
REMARK   17  A    between atoms: _38  and  _41
REMARK   18  A    between atoms: _41  and  _42
REMARK   19  A    between atoms: _45  and  _47
REMARK   20  A    between atoms: _47  and  _48
REMARK   21  A    between atoms: _47  and  _50
REMARK   22  A    between atoms: _50  and  _51
REMARK   23  A    between atoms: _54  and  _56
REMARK   24  A    between atoms: _56  and  _57
REMARK   25  A    between atoms: _59  and  _61
REMARK   26  A    between atoms: _61  and  _62
REMARK   27  A    between atoms: _65  and  _67
REMARK   28  A    between atoms: _67  and  _68
REMARK   29  A    between atoms: _67  and  _70
REMARK   30  A    between atoms: _70  and  _71
REMARK   31  A    between atoms: _74  and  _76
REMARK   32  A    between atoms: _76  and  _77
REMARK   33  A    between atoms: _76  and  _79
REMARK   34  A    between atoms: _79  and  _80
REMARK   35  A    between atoms: _83  and  _85
REMARK   36  A    between atoms: _85  and  _86
REMARK   37  A    between atoms: _85  and  _88
REMARK   38  A    between atoms: _88  and  _89
REMARK   39  A    between atoms: _92  and  _94
REMARK   40  A    between atoms: _94  and  _95
REMARK   41  A    between atoms: _94  and  _97
REMARK   42  A    between atoms: _100  and  _102
REMARK   43  A    between atoms: _102  and  _103
REMARK   44  A    between atoms: _102  and  _105
REMARK   45  A    between atoms: _105  and  _106
REMARK   46  A    between atoms: _106  and  _107
REMARK   47  A    between atoms: _107  and  _108
REMARK   48  A    between atoms: _108  and  _109
REMARK   49  A    between atoms: _113  and  _115
REMARK   50  A    between atoms: _115  and  _116
REMARK   51  A    between atoms: _115  and  _118
REMARK   52  A    between atoms: _118  and  _119
REMARK   53  A    between atoms: _119  and  _120
REMARK   54  A    between atoms: _122  and  _124
REMARK   55  A    between atoms: _124  and  _125
REMARK   56  A    between atoms: _124  and  _127
REMARK   57  A    between atoms: _127  and  _128
REMARK   58  A    between atoms: _131  and  _133
REMARK   59  A    between atoms: _133  and  _134
REMARK   60  A    between atoms: _136  and  _138
REMARK   61  A    between atoms: _138  and  _139
REMARK   62  A    between atoms: _141  and  _143
REMARK   63  A    between atoms: _143  and  _144
REMARK   64  A    between atoms: _143  and  _146
REMARK   65  A    between atoms: _146  and  _147
REMARK   66  A    between atoms: _150  and  _152
REMARK   67  A    between atoms: _152  and  _153
REMARK   68  A    between atoms: _155  and  _157
REMARK   69  A    between atoms: _157  and  _158
REMARK   70  A    between atoms: _160  and  _162
REMARK   71  A    between atoms: _162  and  _163
REMARK   72  A    between atoms: _162  and  _165
REMARK   73  A    between atoms: _165  and  _166
REMARK   74  A    between atoms: _169  and  _171
REMARK   75  A    between atoms: _171  and  _172
REMARK   76  A    between atoms: _171  and  _174
REMARK   77  A    between atoms: _177  and  _179
REMARK   78  A    between atoms: _179  and  _180
REMARK   79  A    between atoms: _179  and  _182
REMARK   80  A    between atoms: _182  and  _183
REMARK   81  A    between atoms: _186  and  _188
REMARK   82  A    between atoms: _188  and  _189
REMARK   83  A    between atoms: _188  and  _191
REMARK   84  A    between atoms: _191  and  _192
REMARK   85  A    between atoms: _196  and  _197
REMARK   86  A    between atoms: _202  and  _204
REMARK   87  A    between atoms: _204  and  _205
REMARK   88  A    between atoms: _204  and  _207
REMARK   89  A    between atoms: _210  and  _212
REMARK   90  A    between atoms: _212  and  _213
REMARK   91  A    between atoms: _212  and  _215
REMARK   92  A    between atoms: _215  and  _216
REMARK   93  A    between atoms: _221  and  _223
REMARK   94  A    between atoms: _223  and  _224
REMARK   95  A    between atoms: _223  and  _226
REMARK   96  A    between atoms: _226  and  _227
REMARK   97  A    between atoms: _230  and  _232
REMARK   98  A    between atoms: _232  and  _233
REMARK   99  A    between atoms: _232  and  _235
REMARK  100  A    between atoms: _235  and  _236
REMARK  101  A    between atoms: _239  and  _241
REMARK  102  A    between atoms: _241  and  _242
REMARK  103  A    between atoms: _244  and  _246
REMARK  104  A    between atoms: _246  and  _247
REMARK  105  A    between atoms: _246  and  _249
REMARK  106  A    between atoms: _249  and  _250
REMARK  107  A    between atoms: _250  and  _251
REMARK  108  A    between atoms: _251  and  _252
REMARK  109  A    between atoms: _261  and  _263
REMARK  110  A    between atoms: _263  and  _264
REMARK  111  A    between atoms: _263  and  _266
REMARK  112  A    between atoms: _266  and  _267
REMARK  113  A    between atoms: _272  and  _274
REMARK  114  A    between atoms: _274  and  _275
REMARK  115  A    between atoms: _274  and  _277
REMARK  116  A    between atoms: _277  and  _278
REMARK  117  A    between atoms: _278  and  _279
REMARK  118  A    between atoms: _279  and  _280
REMARK  119  A    between atoms: _289  and  _291
REMARK  120  A    between atoms: _291  and  _292
REMARK  121  A    between atoms: _291  and  _294
REMARK  122  A    between atoms: _294  and  _295
REMARK  123  A    between atoms: _298  and  _300
REMARK  124  A    between atoms: _300  and  _301
REMARK  125  A    between atoms: _300  and  _303
REMARK  126  A    between atoms: _303  and  _304
REMARK  127  A    between atoms: _307  and  _309
REMARK  128  A    between atoms: _309  and  _310
REMARK  129  A    between atoms: _309  and  _312
REMARK  130  A    between atoms: _312  and  _313
REMARK  131  A    between atoms: _316  and  _318
REMARK  132  A    between atoms: _318  and  _319
REMARK  133  A    between atoms: _318  and  _321
REMARK  134  A    between atoms: _321  and  _322
REMARK  135  A    between atoms: _325  and  _327
REMARK  136  A    between atoms: _327  and  _328
REMARK  137  A    between atoms: _330  and  _332
REMARK  138  A    between atoms: _332  and  _333
REMARK  139  A    between atoms: _336  and  _338
REMARK  140  A    between atoms: _338  and  _339
REMARK  141  A    between atoms: _338  and  _341
REMARK  142  A    between atoms: _341  and  _342
REMARK  143  A    between atoms: _345  and  _347
REMARK  144  A    between atoms: _347  and  _348
REMARK  145  A    between atoms: _347  and  _350
REMARK  146  A    between atoms: _350  and  _351
REMARK  147  A    between atoms: _354  and  _356
REMARK  148  A    between atoms: _356  and  _357
REMARK  149  A    between atoms: _356  and  _359
REMARK  150  A    between atoms: _359  and  _360
REMARK  151  A    between atoms: _363  and  _365
REMARK  152  A    between atoms: _365  and  _366
REMARK  153  A    between atoms: _365  and  _368
REMARK  154  A    between atoms: _371  and  _373
REMARK  155  A    between atoms: _373  and  _374
REMARK  156  A    between atoms: _373  and  _376
REMARK  157  A    between atoms: _376  and  _377
REMARK  158  A    between atoms: _377  and  _378
REMARK  159  A    between atoms: _378  and  _379
REMARK  160  A    between atoms: _379  and  _380
REMARK  161  A    between atoms: _384  and  _386
REMARK  162  A    between atoms: _386  and  _387
REMARK  163  A    between atoms: _386  and  _389
REMARK  164  A    between atoms: _389  and  _390
REMARK  165  A    between atoms: _390  and  _391
REMARK  166  A    between atoms: _393  and  _395
REMARK  167  A    between atoms: _395  and  _396
REMARK  168  A    between atoms: _395  and  _398
REMARK  169  A    between atoms: _398  and  _399
REMARK  170  A    between atoms: _402  and  _404
REMARK  171  A    between atoms: _404  and  _405
REMARK  172  A    between atoms: _407  and  _409
REMARK  173  A    between atoms: _409  and  _410
REMARK  174  A    between atoms: _412  and  _414
REMARK  175  A    between atoms: _414  and  _415
REMARK  176  A    between atoms: _414  and  _417
REMARK  177  A    between atoms: _417  and  _418
REMARK  178  A    between atoms: _421  and  _423
REMARK  179  A    between atoms: _423  and  _424
REMARK  180  A    between atoms: _426  and  _428
REMARK  181  A    between atoms: _428  and  _429
REMARK  182  A    between atoms: _431  and  _433
REMARK  183  A    between atoms: _433  and  _434
REMARK  184  A    between atoms: _433  and  _436
REMARK  185  A    between atoms: _436  and  _437
REMARK  186  A    between atoms: _443  and  _445
REMARK  187  A    between atoms: _445  and  _446
REMARK  188  A    between atoms: _445  and  _448
REMARK  189  A    between atoms: _448  and  _449
REMARK  190  A    between atoms: _452  and  _454
REMARK  191  A    between atoms: _454  and  _455
REMARK  192  A    between atoms: _454  and  _457
REMARK  193  A    between atoms: _460  and  _462
REMARK  194  A    between atoms: _462  and  _463
REMARK  195  A    between atoms: _462  and  _465
REMARK  196  A    between atoms: _465  and  _466
REMARK  197  A    between atoms: _469  and  _471
REMARK  198  A    between atoms: _471  and  _472
REMARK  199  A    between atoms: _471  and  _474
REMARK  200  A    between atoms: _474  and  _475
REMARK  201  A    between atoms: _479  and  _480
REMARK  202  A    between atoms: _485  and  _487
REMARK  203  A    between atoms: _487  and  _488
REMARK  204  A    between atoms: _487  and  _490
REMARK  205  A    between atoms: _493  and  _495
REMARK  206  A    between atoms: _495  and  _496
REMARK  207  A    between atoms: _495  and  _498
REMARK  208  A    between atoms: _498  and  _499
REMARK  209  A    between atoms: _504  and  _506
REMARK  210  A    between atoms: _506  and  _507
REMARK  211  A    between atoms: _506  and  _509
REMARK  212  A    between atoms: _509  and  _510
REMARK  213  A    between atoms: _513  and  _515
REMARK  214  A    between atoms: _515  and  _516
REMARK  215  A    between atoms: _515  and  _518
REMARK  216  A    between atoms: _518  and  _519
REMARK  217  A    between atoms: _522  and  _524
REMARK  218  A    between atoms: _524  and  _525
REMARK  219  A    between atoms: _527  and  _529
REMARK  220  A    between atoms: _529  and  _530
REMARK  221  A    between atoms: _529  and  _532
REMARK  222  A    between atoms: _532  and  _533
REMARK  223  A    between atoms: _533  and  _534
REMARK  224  A    between atoms: _534  and  _535
REMARK  225  A    between atoms: _544  and  _546
REMARK  226  A    between atoms: _546  and  _547
REMARK  227  A    between atoms: _546  and  _549
REMARK  228  A    between atoms: _549  and  _550
REMARK                            x       y       z     vdW  Elec       q    Type
REMARK                         _______ _______ _______ _____ _____    ______ ____
ROOT
ATOM      1  C   ILE A   5      28.764  28.876  18.250  0.00  0.00    +0.241 C 
ATOM      2  N   ILE A   6      28.526  28.120  19.316  0.00  0.00    -0.297 N 
ATOM      3  H   ILE A   6      28.016  28.535  20.122  0.00  0.00    +0.150 HD
ATOM      4  O   ILE A   5      29.531  28.555  17.328  0.00  0.00    -0.273 OA
ENDROOT
BRANCH   2   5
ATOM      5  CA  ILE A   6      28.954  26.733  19.396  0.00  0.00    +0.149 C 
BRANCH   5   6
ATOM      6  C   ILE A   6      27.775  25.859  19.014  0.00  0.00    +0.241 C 
ATOM      7  O   ILE A   6      26.764  25.820  19.732  0.00  0.00    -0.273 OA
ATOM      8  N   GLY A   7      27.923  25.138  17.906  0.00  0.00    -0.295 N 
ATOM      9  H   GLY A   7      28.829  25.178  17.396  0.00  0.00    +0.150 HD
BRANCH   8  10
ATOM     10  CA  GLY A   7      26.855  24.292  17.383  0.00  0.00    +0.176 C 
BRANCH  10  11
ATOM     11  C   GLY A   7      26.990  22.834  17.750  0.00  0.00    +0.243 C 
ATOM     12  O   GLY A   7      27.921  22.430  18.458  0.00  0.00    -0.273 OA
ATOM     13  N   ARG A   8      26.077  22.026  17.221  0.00  0.00    -0.297 N 
ATOM     14  H   ARG A   8      25.427  22.396  16.498  0.00  0.00    +0.150 HD
BRANCH  13  15
ATOM     15  CA  ARG A   8      25.969  20.636  17.632  0.00  0.00    +0.149 C 
BRANCH  15  16
ATOM     16  C   ARG A   8      27.223  19.826  17.354  0.00  0.00    +0.241 C 
ATOM     17  O   ARG A   8      27.507  18.888  18.083  0.00  0.00    -0.273 OA
ATOM     18  N   ASN A   9      27.974  20.177  16.315  0.00  0.00    -0.298 N 
ATOM     19  H   ASN A   9      27.707  20.993  15.728  0.00  0.00    +0.150 HD
BRANCH  18  20
ATOM     20  CA  ASN A   9      29.182  19.405  16.001  0.00  0.00    +0.146 C 
BRANCH  20  21
ATOM     21  C   ASN A   9      30.156  19.358  17.181  0.00  0.00    +0.227 C 
ATOM     22  O   ASN A   9      30.813  18.353  17.388  0.00  0.00    -0.286 OA
ENDBRANCH  20  21
BRANCH  20  23
ATOM     23  CB  ASN A   9      29.857  19.924  14.726  0.00  0.00    +0.112 C 
BRANCH  23  24
ATOM     24  CG  ASN A   9      30.534  21.263  14.919  0.00  0.00    +0.222 C 
ATOM     25  OD1 ASN A   9      29.921  22.217  15.400  0.00  0.00    -0.275 OA
ATOM     26  ND2 ASN A   9      31.819  21.338  14.555  0.00  0.00    -0.329 N 
ATOM     27 HD21 ASN A   9      32.342  22.229  14.674  0.00  0.00    +0.145 HD
ATOM     28 HD22 ASN A   9      32.295  20.505  14.153  0.00  0.00    +0.145 HD
ENDBRANCH  23  24
ENDBRANCH  20  23
ENDBRANCH  18  20
ENDBRANCH  15  16
BRANCH  15  29
ATOM     29  CB  ARG A   8      24.759  19.951  16.992  0.00  0.00    +0.033 C 
BRANCH  29  30
ATOM     30  CG  ARG A   8      23.430  20.462  17.534  0.00  0.00    +0.045 C 
BRANCH  30  31
ATOM     31  CD  ARG A   8      22.234  19.663  17.033  0.00  0.00    +0.174 C 
BRANCH  31  32
ATOM     32  NE  ARG A   8      22.117  19.730  15.574  0.00  0.00    -0.265 N 
ATOM     33  HE  ARG A   8      21.638  20.563  15.176  0.00  0.00    +0.259 HD
ATOM     34  CZ  ARG A   8      22.567  18.825  14.713  0.00  0.00    +0.342 C 
ATOM     35  NH2 ARG A   8      23.163  17.707  15.122  0.00  0.00    -0.292 N 
ATOM     36 HH21 ARG A   8      23.286  17.525  16.139  0.00  0.00    +0.255 HD
ATOM     37 HH22 ARG A   8      23.506  17.015  14.425  0.00  0.00    +0.255 HD
ATOM     38  NH1 ARG A   8      22.400  19.041  13.417  0.00  0.00    -0.292 N 
ATOM     39 HH11 ARG A   8      21.924  19.906  13.091  0.00  0.00    +0.255 HD
ATOM     40 HH12 ARG A   8      22.745  18.345  12.725  0.00  0.00    +0.255 HD
ENDBRANCH  31  32
ENDBRANCH  30  31
ENDBRANCH  29  30
ENDBRANCH  15  29
ENDBRANCH  13  15
ENDBRANCH  10  11
ENDBRANCH   8  10
ENDBRANCH   5   6
BRANCH   5  41
ATOM     41  CB  ILE A   6      29.418  26.338  20.809  0.00  0.00    +0.027 C 
ATOM     42  CG2 ILE A   6      29.965  24.904  20.799  0.00  0.00    +0.002 C 
BRANCH  41  43
ATOM     43  CG1 ILE A   6      30.451  27.337  21.351  0.00  0.00    +0.002 C 
ATOM     44  CD1 ILE A   6      31.644  27.598  20.464  0.00  0.00    +0.000 C 
ENDBRANCH  41  43
ENDBRANCH   5  41
ENDBRANCH   2   5
BRANCH   1  45
ATOM     45  CA  ILE A   5      28.054  30.225  18.262  0.00  0.00    +0.149 C 
BRANCH  45  48
ATOM     46  C   ASN A   4      29.088  32.398  18.588  0.00  0.00    +0.241 C 
ATOM     47  O   ASN A   4      28.464  32.594  19.636  0.00  0.00    -0.273 OA
ATOM     48  N   ILE A   5      28.943  31.302  17.849  0.00  0.00    -0.297 N 
ATOM     49  H   ILE A   5      29.474  31.212  16.960  0.00  0.00    +0.150 HD
BRANCH  46  50
ATOM     50  CA  ASN A   4      30.055  33.453  18.080  0.00  0.00    +0.158 C 
BRANCH  50  52
ATOM     51  C   VAL A   3      28.307  34.919  17.234  0.00  0.00    +0.241 C 
ATOM     52  N   ASN A   4      29.352  34.743  18.031  0.00  0.00    -0.297 N 
ATOM     53  H   ASN A   4      29.679  35.528  18.630  0.00  0.00    +0.150 HD
ATOM     54  O   VAL A   3      27.927  34.071  16.436  0.00  0.00    -0.273 OA
BRANCH  51  55
ATOM     55  CA  VAL A   3      27.577  36.247  17.349  0.00  0.00    +0.149 C 
BRANCH  55  58
ATOM     56  C   PRO A   2      26.578  37.771  15.703  0.00  0.00    +0.241 C 
ATOM     57  O   PRO A   2      26.828  38.774  16.386  0.00  0.00    -0.273 OA
ATOM     58  N   VAL A   3      26.859  36.535  16.100  0.00  0.00    -0.297 N 
ATOM     59  H   VAL A   3      26.559  35.739  15.502  0.00  0.00    +0.150 HD
BRANCH  56  62
ATOM     60  C   THR A   1      27.393  36.567  12.977  0.00  0.00    +0.244 C 
ATOM     61  N   PRO A   2      26.142  36.809  13.398  0.00  0.00    -0.272 N 
ATOM     62  CA  PRO A   2      25.892  37.917  14.338  0.00  0.00    +0.152 C 
ATOM     63  CB  PRO A   2      24.365  37.917  14.505  0.00  0.00    +0.031 C 
ATOM     64  CG  PRO A   2      23.894  36.604  13.966  0.00  0.00    +0.024 C 
ATOM     65  CD  PRO A   2      24.899  36.109  13.005  0.00  0.00    +0.094 C 
ATOM     66  O   THR A   1      28.355  37.272  13.319  0.00  0.00    -0.273 OA
BRANCH  60  67
ATOM     67  CA  THR A   1      27.611  35.358  12.049  0.00  0.00    +0.172 C 
BRANCH  67  68
ATOM     68  CB  THR A   1      27.994  34.102  12.893  0.00  0.00    +0.135 C 
ATOM     69  CG2 THR A   1      29.352  34.248  13.534  0.00  0.00    +0.034 C 
BRANCH  68  70
ATOM     70  OG1 THR A   1      27.007  33.874  13.905  0.00  0.00    -0.383 OA
ATOM     71  HG1 THR A   1      26.957  34.664  14.499  0.00  0.00    +0.210 HD
ENDBRANCH  68  70
ENDBRANCH  67  68
BRANCH  67  72
ATOM     72  N   THR A   1      28.634  35.681  11.066  0.00  0.00    -0.236 NA
ATOM     73  H   THR A   1      29.563  35.218  11.134  0.00  0.00    +0.142 HD
ENDBRANCH  67  72
ENDBRANCH  60  67
ENDBRANCH  56  62
ENDBRANCH  55  58
BRANCH  55  74
ATOM     74  CB  VAL A   3      26.644  36.169  18.577  0.00  0.00    +0.027 C 
ATOM     75  CG2 VAL A   3      25.943  37.499  18.832  0.00  0.00    +0.002 C 
ATOM     76  CG1 VAL A   3      25.625  35.061  18.424  0.00  0.00    +0.002 C 
ENDBRANCH  55  74
ENDBRANCH  51  55
ENDBRANCH  50  52
BRANCH  50  77
ATOM     77  CB  ASN A   4      31.234  33.515  19.051  0.00  0.00    +0.114 C 
BRANCH  77  78
ATOM     78  CG  ASN A   4      32.335  34.440  18.591  0.00  0.00    +0.222 C 
ATOM     79  ND2 ASN A   4      32.997  35.086  19.549  0.00  0.00    -0.329 N 
ATOM     80 HD21 ASN A   4      32.742  34.940  20.547  0.00  0.00    +0.145 HD
ATOM     81 HD22 ASN A   4      33.769  35.737  19.300  0.00  0.00    +0.145 HD
ATOM     82  OD1 ASN A   4      32.596  34.576  17.392  0.00  0.00    -0.275 OA
ENDBRANCH  77  78
ENDBRANCH  50  77
ENDBRANCH  46  50
ENDBRANCH  45  48
BRANCH  45  83
ATOM     83  CB  ILE A   5      26.743  30.158  17.430  0.00  0.00    +0.027 C 
ATOM     84  CG2 ILE A   5      25.916  31.433  17.636  0.00  0.00    +0.002 C 
BRANCH  83  85
ATOM     85  CG1 ILE A   5      27.011  29.889  15.942  0.00  0.00    +0.002 C 
ATOM     86  CD1 ILE A   5      25.748  29.907  15.078  0.00  0.00    +0.000 C 
ENDBRANCH  83  85
ENDBRANCH  45  83
ENDBRANCH   1  45
TORSDOF 32
REMARK  Name = ../refined-set-2016/2qi4/2qi4_pocket.pdb
REMARK  228 active torsions:
REMARK  status: ('A' for Active; 'I' for Inactive)
REMARK    1  A    between atoms: _1  and  _3
REMARK    2  A    between atoms: _3  and  _4
REMARK    3  A    between atoms: _3  and  _6
REMARK    4  A    between atoms: _6  and  _7
REMARK    5  A    between atoms: _7  and  _8
REMARK    6  A    between atoms: _8  and  _9
REMARK    7  A    between atoms: _18  and  _20
REMARK    8  A    between atoms: _20  and  _21
REMARK    9  A    between atoms: _20  and  _23
REMARK   10  A    between atoms: _23  and  _24
REMARK   11  A    between atoms: _27  and  _29
REMARK   12  A    between atoms: _29  and  _30
REMARK   13  A    between atoms: _29  and  _32
REMARK   14  A    between atoms: _32  and  _33
REMARK   15  A    between atoms: _36  and  _38
REMARK   16  A    between atoms: _38  and  _39
REMARK   17  A    between atoms: _38  and  _41
REMARK   18  A    between atoms: _41  and  _42
REMARK   19  A    between atoms: _45  and  _47
REMARK   20  A    between atoms: _47  and  _48
REMARK   21  A    between atoms: _47  and  _50
REMARK   22  A    between atoms: _50  and  _51
REMARK   23  A    between atoms: _54  and  _56
REMARK   24  A    between atoms: _56  and  _57
REMARK   25  A    between atoms: _59  and  _61
REMARK   26  A    between atoms: _61  and  _62
REMARK   27  A    between atoms: _65  and  _67
REMARK   28  A    between atoms: _67  and  _68
REMARK   29  A    between atoms: _67  and  _70
REMARK   30  A    between atoms: _70  and  _71
REMARK   31  A    between atoms: _74  and  _76
REMARK   32  A    between atoms: _76  and  _77
REMARK   33  A    between atoms: _76  and  _79
REMARK   34  A    between atoms: _79  and  _80
REMARK   35  A    between atoms: _83  and  _85
REMARK   36  A    between atoms: _85  and  _86
REMARK   37  A    between atoms: _85  and  _88
REMARK   38  A    between atoms: _88  and  _89
REMARK   39  A    between atoms: _92  and  _94
REMARK   40  A    between atoms: _94  and  _95
REMARK   41  A    between atoms: _94  and  _97
REMARK   42  A    between atoms: _100  and  _102
REMARK   43  A    between atoms: _102  and  _103
REMARK   44  A    between atoms: _102  and  _105
REMARK   45  A    between atoms: _105  and  _106
REMARK   46  A    between atoms: _106  and  _107
REMARK   47  A    between atoms: _107  and  _108
REMARK   48  A    between atoms: _108  and  _109
REMARK   49  A    between atoms: _113  and  _115
REMARK   50  A    between atoms: _115  and  _116
REMARK   51  A    between atoms: _115  and  _118
REMARK   52  A    between atoms: _118  and  _119
REMARK   53  A    between atoms: _119  and  _120
REMARK   54  A    between atoms: _122  and  _124
REMARK   55  A    between atoms: _124  and  _125
REMARK   56  A    between atoms: _124  and  _127
REMARK   57  A    between atoms: _127  and  _128
REMARK   58  A    between atoms: _131  and  _133
REMARK   59  A    between atoms: _133  and  _134
REMARK   60  A    between atoms: _136  and  _138
REMARK   61  A    between atoms: _138  and  _139
REMARK   62  A    between atoms: _141  and  _143
REMARK   63  A    between atoms: _143  and  _144
REMARK   64  A    between atoms: _143  and  _146
REMARK   65  A    between atoms: _146  and  _147
REMARK   66  A    between atoms: _150  and  _152
REMARK   67  A    between atoms: _152  and  _153
REMARK   68  A    between atoms: _155  and  _157
REMARK   69  A    between atoms: _157  and  _158
REMARK   70  A    between atoms: _160  and  _162
REMARK   71  A    between atoms: _162  and  _163
REMARK   72  A    between atoms: _162  and  _165
REMARK   73  A    between atoms: _165  and  _166
REMARK   74  A    between atoms: _169  and  _171
REMARK   75  A    between atoms: _171  and  _172
REMARK   76  A    between atoms: _171  and  _174
REMARK   77  A    between atoms: _177  and  _179
REMARK   78  A    between atoms: _179  and  _180
REMARK   79  A    between atoms: _179  and  _182
REMARK   80  A    between atoms: _182  and  _183
REMARK   81  A    between atoms: _186  and  _188
REMARK   82  A    between atoms: _188  and  _189
REMARK   83  A    between atoms: _188  and  _191
REMARK   84  A    between atoms: _191  and  _192
REMARK   85  A    between atoms: _196  and  _197
REMARK   86  A    between atoms: _202  and  _204
REMARK   87  A    between atoms: _204  and  _205
REMARK   88  A    between atoms: _204  and  _207
REMARK   89  A    between atoms: _210  and  _212
REMARK   90  A    between atoms: _212  and  _213
REMARK   91  A    between atoms: _212  and  _215
REMARK   92  A    between atoms: _215  and  _216
REMARK   93  A    between atoms: _221  and  _223
REMARK   94  A    between atoms: _223  and  _224
REMARK   95  A    between atoms: _223  and  _226
REMARK   96  A    between atoms: _226  and  _227
REMARK   97  A    between atoms: _230  and  _232
REMARK   98  A    between atoms: _232  and  _233
REMARK   99  A    between atoms: _232  and  _235
REMARK  100  A    between atoms: _235  and  _236
REMARK  101  A    between atoms: _239  and  _241
REMARK  102  A    between atoms: _241  and  _242
REMARK  103  A    between atoms: _244  and  _246
REMARK  104  A    between atoms: _246  and  _247
REMARK  105  A    between atoms: _246  and  _249
REMARK  106  A    between atoms: _249  and  _250
REMARK  107  A    between atoms: _250  and  _251
REMARK  108  A    between atoms: _251  and  _252
REMARK  109  A    between atoms: _261  and  _263
REMARK  110  A    between atoms: _263  and  _264
REMARK  111  A    between atoms: _263  and  _266
REMARK  112  A    between atoms: _266  and  _267
REMARK  113  A    between atoms: _272  and  _274
REMARK  114  A    between atoms: _274  and  _275
REMARK  115  A    between atoms: _274  and  _277
REMARK  116  A    between atoms: _277  and  _278
REMARK  117  A    between atoms: _278  and  _279
REMARK  118  A    between atoms: _279  and  _280
REMARK  119  A    between atoms: _289  and  _291
REMARK  120  A    between atoms: _291  and  _292
REMARK  121  A    between atoms: _291  and  _294
REMARK  122  A    between atoms: _294  and  _295
REMARK  123  A    between atoms: _298  and  _300
REMARK  124  A    between atoms: _300  and  _301
REMARK  125  A    between atoms: _300  and  _303
REMARK  126  A    between atoms: _303  and  _304
REMARK  127  A    between atoms: _307  and  _309
REMARK  128  A    between atoms: _309  and  _310
REMARK  129  A    between atoms: _309  and  _312
REMARK  130  A    between atoms: _312  and  _313
REMARK  131  A    between atoms: _316  and  _318
REMARK  132  A    between atoms: _318  and  _319
REMARK  133  A    between atoms: _318  and  _321
REMARK  134  A    between atoms: _321  and  _322
REMARK  135  A    between atoms: _325  and  _327
REMARK  136  A    between atoms: _327  and  _328
REMARK  137  A    between atoms: _330  and  _332
REMARK  138  A    between atoms: _332  and  _333
REMARK  139  A    between atoms: _336  and  _338
REMARK  140  A    between atoms: _338  and  _339
REMARK  141  A    between atoms: _338  and  _341
REMARK  142  A    between atoms: _341  and  _342
REMARK  143  A    between atoms: _345  and  _347
REMARK  144  A    between atoms: _347  and  _348
REMARK  145  A    between atoms: _347  and  _350
REMARK  146  A    between atoms: _350  and  _351
REMARK  147  A    between atoms: _354  and  _356
REMARK  148  A    between atoms: _356  and  _357
REMARK  149  A    between atoms: _356  and  _359
REMARK  150  A    between atoms: _359  and  _360
REMARK  151  A    between atoms: _363  and  _365
REMARK  152  A    between atoms: _365  and  _366
REMARK  153  A    between atoms: _365  and  _368
REMARK  154  A    between atoms: _371  and  _373
REMARK  155  A    between atoms: _373  and  _374
REMARK  156  A    between atoms: _373  and  _376
REMARK  157  A    between atoms: _376  and  _377
REMARK  158  A    between atoms: _377  and  _378
REMARK  159  A    between atoms: _378  and  _379
REMARK  160  A    between atoms: _379  and  _380
REMARK  161  A    between atoms: _384  and  _386
REMARK  162  A    between atoms: _386  and  _387
REMARK  163  A    between atoms: _386  and  _389
REMARK  164  A    between atoms: _389  and  _390
REMARK  165  A    between atoms: _390  and  _391
REMARK  166  A    between atoms: _393  and  _395
REMARK  167  A    between atoms: _395  and  _396
REMARK  168  A    between atoms: _395  and  _398
REMARK  169  A    between atoms: _398  and  _399
REMARK  170  A    between atoms: _402  and  _404
REMARK  171  A    between atoms: _404  and  _405
REMARK  172  A    between atoms: _407  and  _409
REMARK  173  A    between atoms: _409  and  _410
REMARK  174  A    between atoms: _412  and  _414
REMARK  175  A    between atoms: _414  and  _415
REMARK  176  A    between atoms: _414  and  _417
REMARK  177  A    between atoms: _417  and  _418
REMARK  178  A    between atoms: _421  and  _423
REMARK  179  A    between atoms: _423  and  _424
REMARK  180  A    between atoms: _426  and  _428
REMARK  181  A    between atoms: _428  and  _429
REMARK  182  A    between atoms: _431  and  _433
REMARK  183  A    between atoms: _433  and  _434
REMARK  184  A    between atoms: _433  and  _436
REMARK  185  A    between atoms: _436  and  _437
REMARK  186  A    between atoms: _443  and  _445
REMARK  187  A    between atoms: _445  and  _446
REMARK  188  A    between atoms: _445  and  _448
REMARK  189  A    between atoms: _448  and  _449
REMARK  190  A    between atoms: _452  and  _454
REMARK  191  A    between atoms: _454  and  _455
REMARK  192  A    between atoms: _454  and  _457
REMARK  193  A    between atoms: _460  and  _462
REMARK  194  A    between atoms: _462  and  _463
REMARK  195  A    between atoms: _462  and  _465
REMARK  196  A    between atoms: _465  and  _466
REMARK  197  A    between atoms: _469  and  _471
REMARK  198  A    between atoms: _471  and  _472
REMARK  199  A    between atoms: _471  and  _474
REMARK  200  A    between atoms: _474  and  _475
REMARK  201  A    between atoms: _479  and  _480
REMARK  202  A    between atoms: _485  and  _487
REMARK  203  A    between atoms: _487  and  _488
REMARK  204  A    between atoms: _487  and  _490
REMARK  205  A    between atoms: _493  and  _495
REMARK  206  A    between atoms: _495  and  _496
REMARK  207  A    between atoms: _495  and  _498
REMARK  208  A    between atoms: _498  and  _499
REMARK  209  A    between atoms: _504  and  _506
REMARK  210  A    between atoms: _506  and  _507
REMARK  211  A    between atoms: _506  and  _509
REMARK  212  A    between atoms: _509  and  _510
REMARK  213  A    between atoms: _513  and  _515
REMARK  214  A    between atoms: _515  and  _516
REMARK  215  A    between atoms: _515  and  _518
REMARK  216  A    between atoms: _518  and  _519
REMARK  217  A    between atoms: _522  and  _524
REMARK  218  A    between atoms: _524  and  _525
REMARK  219  A    between atoms: _527  and  _529
REMARK  220  A    between atoms: _529  and  _530
REMARK  221  A    between atoms: _529  and  _532
REMARK  222  A    between atoms: _532  and  _533
REMARK  223  A    between atoms: _533  and  _534
REMARK  224  A    between atoms: _534  and  _535
REMARK  225  A    between atoms: _544  and  _546
REMARK  226  A    between atoms: _546  and  _547
REMARK  227  A    between atoms: _546  and  _549
REMARK  228  A    between atoms: _549  and  _550
REMARK                            x       y       z     vdW  Elec       q    Type
REMARK                         _______ _______ _______ _____ _____    ______ ____
ROOT
ATOM      1  NE  ARG A   1      18.905  20.836  11.160  0.00  0.00    -0.265 N 
ATOM      2  HE  ARG A   1      19.797  20.351  10.935  0.00  0.00    +0.259 HD
ATOM      3  CZ  ARG A   1      18.622  21.954  10.485  0.00  0.00    +0.342 C 
ATOM      4  NH2 ARG A   1      17.505  22.645  10.738  0.00  0.00    -0.292 N 
ATOM      5 HH21 ARG A   1      16.843  22.314  11.469  0.00  0.00    +0.255 HD
ATOM      6 HH22 ARG A   1      17.299  23.513  10.204  0.00  0.00    +0.255 HD
ATOM      7  NH1 ARG A   1      19.464  22.396   9.552  0.00  0.00    -0.292 N 
ATOM      8 HH11 ARG A   1      20.339  21.871   9.351  0.00  0.00    +0.255 HD
ATOM      9 HH12 ARG A   1      19.246  23.266   9.025  0.00  0.00    +0.255 HD
ENDROOT
BRANCH   1  10
ATOM     10  CD  ARG A   1      18.058  20.246  12.188  0.00  0.00    +0.174 C 
BRANCH  10  11
ATOM     11  CG  ARG A   1      18.846  19.411  13.175  0.00  0.00    +0.045 C 
BRANCH  11  12
ATOM     12  CB  ARG A   1      17.921  18.845  14.215  0.00  0.00    +0.029 C 
BRANCH  12  13
ATOM     13  CA  ARG A   1      18.629  18.225  15.408  0.00  0.00    +0.133 C 
BRANCH  13  14
ATOM     14  N   ARG A   1      19.364  17.031  15.004  0.00  0.00    -0.239 NA
ATOM     15  H   ARG A   1      19.313  16.704  14.018  0.00  0.00    +0.142 HD
ENDBRANCH  13  14
BRANCH  13  16
ATOM     16  C   ARG A   1      17.604  17.879  16.488  0.00  0.00    +0.224 C 
ATOM     17  O   ARG A   1      16.884  16.876  16.364  0.00  0.00    -0.287 OA
ENDBRANCH  13  16
ENDBRANCH  12  13
ENDBRANCH  11  12
ENDBRANCH  10  11
ENDBRANCH   1  10
TORSDOF 6
REMARK  Name = ../refined-set-2016/2qi4/2qi4_pocket.pdb
REMARK  228 active torsions:
REMARK  status: ('A' for Active; 'I' for Inactive)
REMARK    1  A    between atoms: _1  and  _3
REMARK    2  A    between atoms: _3  and  _4
REMARK    3  A    between atoms: _3  and  _6
REMARK    4  A    between atoms: _6  and  _7
REMARK    5  A    between atoms: _7  and  _8
REMARK    6  A    between atoms: _8  and  _9
REMARK    7  A    between atoms: _18  and  _20
REMARK    8  A    between atoms: _20  and  _21
REMARK    9  A    between atoms: _20  and  _23
REMARK   10  A    between atoms: _23  and  _24
REMARK   11  A    between atoms: _27  and  _29
REMARK   12  A    between atoms: _29  and  _30
REMARK   13  A    between atoms: _29  and  _32
REMARK   14  A    between atoms: _32  and  _33
REMARK   15  A    between atoms: _36  and  _38
REMARK   16  A    between atoms: _38  and  _39
REMARK   17  A    between atoms: _38  and  _41
REMARK   18  A    between atoms: _41  and  _42
REMARK   19  A    between atoms: _45  and  _47
REMARK   20  A    between atoms: _47  and  _48
REMARK   21  A    between atoms: _47  and  _50
REMARK   22  A    between atoms: _50  and  _51
REMARK   23  A    between atoms: _54  and  _56
REMARK   24  A    between atoms: _56  and  _57
REMARK   25  A    between atoms: _59  and  _61
REMARK   26  A    between atoms: _61  and  _62
REMARK   27  A    between atoms: _65  and  _67
REMARK   28  A    between atoms: _67  and  _68
REMARK   29  A    between atoms: _67  and  _70
REMARK   30  A    between atoms: _70  and  _71
REMARK   31  A    between atoms: _74  and  _76
REMARK   32  A    between atoms: _76  and  _77
REMARK   33  A    between atoms: _76  and  _79
REMARK   34  A    between atoms: _79  and  _80
REMARK   35  A    between atoms: _83  and  _85
REMARK   36  A    between atoms: _85  and  _86
REMARK   37  A    between atoms: _85  and  _88
REMARK   38  A    between atoms: _88  and  _89
REMARK   39  A    between atoms: _92  and  _94
REMARK   40  A    between atoms: _94  and  _95
REMARK   41  A    between atoms: _94  and  _97
REMARK   42  A    between atoms: _100  and  _102
REMARK   43  A    between atoms: _102  and  _103
REMARK   44  A    between atoms: _102  and  _105
REMARK   45  A    between atoms: _105  and  _106
REMARK   46  A    between atoms: _106  and  _107
REMARK   47  A    between atoms: _107  and  _108
REMARK   48  A    between atoms: _108  and  _109
REMARK   49  A    between atoms: _113  and  _115
REMARK   50  A    between atoms: _115  and  _116
REMARK   51  A    between atoms: _115  and  _118
REMARK   52  A    between atoms: _118  and  _119
REMARK   53  A    between atoms: _119  and  _120
REMARK   54  A    between atoms: _122  and  _124
REMARK   55  A    between atoms: _124  and  _125
REMARK   56  A    between atoms: _124  and  _127
REMARK   57  A    between atoms: _127  and  _128
REMARK   58  A    between atoms: _131  and  _133
REMARK   59  A    between atoms: _133  and  _134
REMARK   60  A    between atoms: _136  and  _138
REMARK   61  A    between atoms: _138  and  _139
REMARK   62  A    between atoms: _141  and  _143
REMARK   63  A    between atoms: _143  and  _144
REMARK   64  A    between atoms: _143  and  _146
REMARK   65  A    between atoms: _146  and  _147
REMARK   66  A    between atoms: _150  and  _152
REMARK   67  A    between atoms: _152  and  _153
REMARK   68  A    between atoms: _155  and  _157
REMARK   69  A    between atoms: _157  and  _158
REMARK   70  A    between atoms: _160  and  _162
REMARK   71  A    between atoms: _162  and  _163
REMARK   72  A    between atoms: _162  and  _165
REMARK   73  A    between atoms: _165  and  _166
REMARK   74  A    between atoms: _169  and  _171
REMARK   75  A    between atoms: _171  and  _172
REMARK   76  A    between atoms: _171  and  _174
REMARK   77  A    between atoms: _177  and  _179
REMARK   78  A    between atoms: _179  and  _180
REMARK   79  A    between atoms: _179  and  _182
REMARK   80  A    between atoms: _182  and  _183
REMARK   81  A    between atoms: _186  and  _188
REMARK   82  A    between atoms: _188  and  _189
REMARK   83  A    between atoms: _188  and  _191
REMARK   84  A    between atoms: _191  and  _192
REMARK   85  A    between atoms: _196  and  _197
REMARK   86  A    between atoms: _202  and  _204
REMARK   87  A    between atoms: _204  and  _205
REMARK   88  A    between atoms: _204  and  _207
REMARK   89  A    between atoms: _210  and  _212
REMARK   90  A    between atoms: _212  and  _213
REMARK   91  A    between atoms: _212  and  _215
REMARK   92  A    between atoms: _215  and  _216
REMARK   93  A    between atoms: _221  and  _223
REMARK   94  A    between atoms: _223  and  _224
REMARK   95  A    between atoms: _223  and  _226
REMARK   96  A    between atoms: _226  and  _227
REMARK   97  A    between atoms: _230  and  _232
REMARK   98  A    between atoms: _232  and  _233
REMARK   99  A    between atoms: _232  and  _235
REMARK  100  A    between atoms: _235  and  _236
REMARK  101  A    between atoms: _239  and  _241
REMARK  102  A    between atoms: _241  and  _242
REMARK  103  A    between atoms: _244  and  _246
REMARK  104  A    between atoms: _246  and  _247
REMARK  105  A    between atoms: _246  and  _249
REMARK  106  A    between atoms: _249  and  _250
REMARK  107  A    between atoms: _250  and  _251
REMARK  108  A    between atoms: _251  and  _252
REMARK  109  A    between atoms: _261  and  _263
REMARK  110  A    between atoms: _263  and  _264
REMARK  111  A    between atoms: _263  and  _266
REMARK  112  A    between atoms: _266  and  _267
REMARK  113  A    between atoms: _272  and  _274
REMARK  114  A    between atoms: _274  and  _275
REMARK  115  A    between atoms: _274  and  _277
REMARK  116  A    between atoms: _277  and  _278
REMARK  117  A    between atoms: _278  and  _279
REMARK  118  A    between atoms: _279  and  _280
REMARK  119  A    between atoms: _289  and  _291
REMARK  120  A    between atoms: _291  and  _292
REMARK  121  A    between atoms: _291  and  _294
REMARK  122  A    between atoms: _294  and  _295
REMARK  123  A    between atoms: _298  and  _300
REMARK  124  A    between atoms: _300  and  _301
REMARK  125  A    between atoms: _300  and  _303
REMARK  126  A    between atoms: _303  and  _304
REMARK  127  A    between atoms: _307  and  _309
REMARK  128  A    between atoms: _309  and  _310
REMARK  129  A    between atoms: _309  and  _312
REMARK  130  A    between atoms: _312  and  _313
REMARK  131  A    between atoms: _316  and  _318
REMARK  132  A    between atoms: _318  and  _319
REMARK  133  A    between atoms: _318  and  _321
REMARK  134  A    between atoms: _321  and  _322
REMARK  135  A    between atoms: _325  and  _327
REMARK  136  A    between atoms: _327  and  _328
REMARK  137  A    between atoms: _330  and  _332
REMARK  138  A    between atoms: _332  and  _333
REMARK  139  A    between atoms: _336  and  _338
REMARK  140  A    between atoms: _338  and  _339
REMARK  141  A    between atoms: _338  and  _341
REMARK  142  A    between atoms: _341  and  _342
REMARK  143  A    between atoms: _345  and  _347
REMARK  144  A    between atoms: _347  and  _348
REMARK  145  A    between atoms: _347  and  _350
REMARK  146  A    between atoms: _350  and  _351
REMARK  147  A    between atoms: _354  and  _356
REMARK  148  A    between atoms: _356  and  _357
REMARK  149  A    between atoms: _356  and  _359
REMARK  150  A    between atoms: _359  and  _360
REMARK  151  A    between atoms: _363  and  _365
REMARK  152  A    between atoms: _365  and  _366
REMARK  153  A    between atoms: _365  and  _368
REMARK  154  A    between atoms: _371  and  _373
REMARK  155  A    between atoms: _373  and  _374
REMARK  156  A    between atoms: _373  and  _376
REMARK  157  A    between atoms: _376  and  _377
REMARK  158  A    between atoms: _377  and  _378
REMARK  159  A    between atoms: _378  and  _379
REMARK  160  A    between atoms: _379  and  _380
REMARK  161  A    between atoms: _384  and  _386
REMARK  162  A    between atoms: _386  and  _387
REMARK  163  A    between atoms: _386  and  _389
REMARK  164  A    between atoms: _389  and  _390
REMARK  165  A    between atoms: _390  and  _391
REMARK  166  A    between atoms: _393  and  _395
REMARK  167  A    between atoms: _395  and  _396
REMARK  168  A    between atoms: _395  and  _398
REMARK  169  A    between atoms: _398  and  _399
REMARK  170  A    between atoms: _402  and  _404
REMARK  171  A    between atoms: _404  and  _405
REMARK  172  A    between atoms: _407  and  _409
REMARK  173  A    between atoms: _409  and  _410
REMARK  174  A    between atoms: _412  and  _414
REMARK  175  A    between atoms: _414  and  _415
REMARK  176  A    between atoms: _414  and  _417
REMARK  177  A    between atoms: _417  and  _418
REMARK  178  A    between atoms: _421  and  _423
REMARK  179  A    between atoms: _423  and  _424
REMARK  180  A    between atoms: _426  and  _428
REMARK  181  A    between atoms: _428  and  _429
REMARK  182  A    between atoms: _431  and  _433
REMARK  183  A    between atoms: _433  and  _434
REMARK  184  A    between atoms: _433  and  _436
REMARK  185  A    between atoms: _436  and  _437
REMARK  186  A    between atoms: _443  and  _445
REMARK  187  A    between atoms: _445  and  _446
REMARK  188  A    between atoms: _445  and  _448
REMARK  189  A    between atoms: _448  and  _449
REMARK  190  A    between atoms: _452  and  _454
REMARK  191  A    between atoms: _454  and  _455
REMARK  192  A    between atoms: _454  and  _457
REMARK  193  A    between atoms: _460  and  _462
REMARK  194  A    between atoms: _462  and  _463
REMARK  195  A    between atoms: _462  and  _465
REMARK  196  A    between atoms: _465  and  _466
REMARK  197  A    between atoms: _469  and  _471
REMARK  198  A    between atoms: _471  and  _472
REMARK  199  A    between atoms: _471  and  _474
REMARK  200  A    between atoms: _474  and  _475
REMARK  201  A    between atoms: _479  and  _480
REMARK  202  A    between atoms: _485  and  _487
REMARK  203  A    between atoms: _487  and  _488
REMARK  204  A    between atoms: _487  and  _490
REMARK  205  A    between atoms: _493  and  _495
REMARK  206  A    between atoms: _495  and  _496
REMARK  207  A    between atoms: _495  and  _498
REMARK  208  A    between atoms: _498  and  _499
REMARK  209  A    between atoms: _504  and  _506
REMARK  210  A    between atoms: _506  and  _507
REMARK  211  A    between atoms: _506  and  _509
REMARK  212  A    between atoms: _509  and  _510
REMARK  213  A    between atoms: _513  and  _515
REMARK  214  A    between atoms: _515  and  _516
REMARK  215  A    between atoms: _515  and  _518
REMARK  216  A    between atoms: _518  and  _519
REMARK  217  A    between atoms: _522  and  _524
REMARK  218  A    between atoms: _524  and  _525
REMARK  219  A    between atoms: _527  and  _529
REMARK  220  A    between atoms: _529  and  _530
REMARK  221  A    between atoms: _529  and  _532
REMARK  222  A    between atoms: _532  and  _533
REMARK  223  A    between atoms: _533  and  _534
REMARK  224  A    between atoms: _534  and  _535
REMARK  225  A    between atoms: _544  and  _546
REMARK  226  A    between atoms: _546  and  _547
REMARK  227  A    between atoms: _546  and  _549
REMARK  228  A    between atoms: _549  and  _550
REMARK                            x       y       z     vdW  Elec       q    Type
REMARK                         _______ _______ _______ _____ _____    ______ ____
ROOT
ATOM      1  C   GLY A   5      19.564  31.061  20.370  0.00  0.00    +0.243 C 
ATOM      2  N   ALA A   6      18.282  30.737  20.544  0.00  0.00    -0.297 N 
ATOM      3  H   ALA A   6      18.069  29.810  20.965  0.00  0.00    +0.150 HD
ATOM      4  O   GLY A   5      19.946  32.152  19.946  0.00  0.00    -0.273 OA
ENDROOT
BRANCH   2   5
ATOM      5  CA  ALA A   6      17.156  31.597  20.183  0.00  0.00    +0.149 C 
ATOM      6  CB  ALA A   6      16.059  30.748  19.550  0.00  0.00    +0.031 C 
BRANCH   5   7
ATOM      7  C   ALA A   6      16.613  32.307  21.418  0.00  0.00    +0.241 C 
ATOM      8  O   ALA A   6      16.141  31.650  22.352  0.00  0.00    -0.273 OA
ATOM      9  N   ASP A   7      16.684  33.638  21.446  0.00  0.00    -0.297 N 
ATOM     10  H   ASP A   7      17.158  34.146  20.672  0.00  0.00    +0.150 HD
BRANCH   9  11
ATOM     11  CA  ASP A   7      16.097  34.394  22.564  0.00  0.00    +0.160 C 
BRANCH  11  12
ATOM     12  C   ASP A   7      14.585  34.208  22.600  0.00  0.00    +0.241 C 
ATOM     13  O   ASP A   7      13.987  34.017  23.672  0.00  0.00    -0.273 OA
ATOM     14  N   ASP A   8      13.993  34.278  21.411  0.00  0.00    -0.297 N 
ATOM     15  H   ASP A   8      14.601  34.350  20.570  0.00  0.00    +0.150 HD
BRANCH  14  16
ATOM     16  CA  ASP A   8      12.553  34.261  21.207  0.00  0.00    +0.160 C 
BRANCH  16  17
ATOM     17  C   ASP A   8      12.134  33.009  20.434  0.00  0.00    +0.241 C 
ATOM     18  N   THR A   9      10.841  32.738  20.466  0.00  0.00    -0.295 N 
ATOM     19  H   THR A   9      10.220  33.354  21.029  0.00  0.00    +0.150 HD
ATOM     20  O   ASP A   8      12.958  32.310  19.836  0.00  0.00    -0.273 OA
BRANCH  18  21
ATOM     21  CA  THR A   9      10.246  31.620  19.752  0.00  0.00    +0.176 C 
BRANCH  21  22
ATOM     22  C   THR A   9       9.725  32.119  18.403  0.00  0.00    +0.243 C 
ATOM     23  O   THR A   9       8.955  33.095  18.338  0.00  0.00    -0.273 OA
ATOM     24  N   VAL A  10      10.151  31.448  17.340  0.00  0.00    -0.298 N 
ATOM     25  H   VAL A  10      10.734  30.599  17.487  0.00  0.00    +0.150 HD
BRANCH  24  26
ATOM     26  CA  VAL A  10       9.835  31.852  15.971  0.00  0.00    +0.137 C 
BRANCH  26  27
ATOM     27  CB  VAL A  10      11.090  32.288  15.188  0.00  0.00    +0.026 C 
ATOM     28  CG2 VAL A  10      11.995  33.179  16.043  0.00  0.00    +0.002 C 
ATOM     29  CG1 VAL A  10      10.692  33.012  13.899  0.00  0.00    +0.002 C 
ENDBRANCH  26  27
BRANCH  26  30
ATOM     30  C   VAL A  10       9.157  30.684  15.249  0.00  0.00    +0.227 C 
ATOM     31  O   VAL A  10       9.736  29.599  15.104  0.00  0.00    -0.286 OA
ENDBRANCH  26  30
ENDBRANCH  24  26
ENDBRANCH  21  22
BRANCH  21  32
ATOM     32  CB  THR A   9       9.104  30.982  20.583  0.00  0.00    +0.137 C 
ATOM     33  CG2 THR A   9       8.346  29.925  19.793  0.00  0.00    +0.034 C 
BRANCH  32  34
ATOM     34  OG1 THR A   9       9.658  30.364  21.746  0.00  0.00    -0.382 OA
ATOM     35  HG1 THR A   9      10.125  31.047  22.291  0.00  0.00    +0.210 HD
ENDBRANCH  32  34
ENDBRANCH  21  32
ENDBRANCH  18  21
ENDBRANCH  16  17
BRANCH  16  36
ATOM     36  CB  ASP A   8      12.120  35.518  20.433  0.00  0.00    +0.143 C 
BRANCH  36  37
ATOM     37  CG  ASP A   8      12.521  36.821  21.133  0.00  0.00    +0.367 C 
ATOM     38  OD2 ASP A   8      12.577  36.846  22.380  0.00  0.00    -0.246 OA
ATOM     39  OD1 ASP A   8      12.757  37.836  20.435  0.00  0.00    -0.246 OA
ENDBRANCH  36  37
ENDBRANCH  16  36
ENDBRANCH  14  16
ENDBRANCH  11  12
BRANCH  11  40
ATOM     40  CB  ASP A   7      16.355  35.886  22.432  0.00  0.00    +0.143 C 
BRANCH  40  41
ATOM     41  CG  ASP A   7      17.815  36.245  22.468  0.00  0.00    +0.367 C 
ATOM     42  OD2 ASP A   7      18.646  35.460  22.973  0.00  0.00    -0.246 OA
ATOM     43  OD1 ASP A   7      18.118  37.355  21.999  0.00  0.00    -0.246 OA
ENDBRANCH  40  41
ENDBRANCH  11  40
ENDBRANCH   9  11
ENDBRANCH   5   7
ENDBRANCH   2   5
BRANCH   1  44
ATOM     44  CA  GLY A   5      20.582  29.988  20.748  0.00  0.00    +0.176 C 
BRANCH  44  47
ATOM     45  C   THR A   4      19.789  28.745  22.712  0.00  0.00    +0.243 C 
ATOM     46  O   THR A   4      20.027  29.671  23.483  0.00  0.00    -0.273 OA
ATOM     47  N   GLY A   5      20.051  28.789  21.400  0.00  0.00    -0.295 N 
ATOM     48  H   GLY A   5      19.871  27.942  20.824  0.00  0.00    +0.150 HD
BRANCH  45  49
ATOM     49  CA  THR A   4      19.153  27.468  23.246  0.00  0.00    +0.176 C 
BRANCH  49  51
ATOM     50  C   ASP A   3      17.458  27.063  21.547  0.00  0.00    +0.241 C 
ATOM     51  N   THR A   4      18.547  26.662  22.190  0.00  0.00    -0.295 N 
ATOM     52  H   THR A   4      18.980  25.751  21.936  0.00  0.00    +0.150 HD
ATOM     53  O   ASP A   3      16.899  28.152  21.771  0.00  0.00    -0.273 OA
BRANCH  50  54
ATOM     54  CA  ASP A   3      16.960  26.096  20.470  0.00  0.00    +0.160 C 
BRANCH  54  56
ATOM     55  C   LEU A   2      15.905  23.946  20.869  0.00  0.00    +0.241 C 
ATOM     56  N   ASP A   3      15.845  25.276  20.912  0.00  0.00    -0.297 N 
ATOM     57  H   ASP A   3      14.983  25.736  21.269  0.00  0.00    +0.150 HD
ATOM     58  O   LEU A   2      16.962  23.307  20.712  0.00  0.00    -0.273 OA
BRANCH  55  59
ATOM     59  CA  LEU A   2      14.580  23.217  21.015  0.00  0.00    +0.149 C 
BRANCH  59  61
ATOM     60  C   LEU A   1      13.733  23.456  18.760  0.00  0.00    +0.238 C 
ATOM     61  N   LEU A   2      14.278  22.687  19.696  0.00  0.00    -0.297 N 
ATOM     62  H   LEU A   2      14.492  21.692  19.482  0.00  0.00    +0.150 HD
ATOM     63  O   LEU A   1      13.280  24.567  18.987  0.00  0.00    -0.274 OA
BRANCH  60  64
ATOM     64  CA  LEU A   1      13.753  22.922  17.351  0.00  0.00    +0.145 C 
BRANCH  64  65
ATOM     65  N   LEU A   1      12.445  23.054  16.719  0.00  0.00    -0.238 NA
ATOM     66  H   LEU A   1      12.286  23.845  16.063  0.00  0.00    +0.142 HD
ENDBRANCH  64  65
BRANCH  64  67
ATOM     67  CB  LEU A   1      14.810  23.756  16.629  0.00  0.00    +0.026 C 
BRANCH  67  68
ATOM     68  CG  LEU A   1      15.418  23.311  15.324  0.00  0.00    +0.002 C 
ATOM     69  CD2 LEU A   1      16.134  22.001  15.476  0.00  0.00    +0.000 C 
ATOM     70  CD1 LEU A   1      16.374  24.401  14.857  0.00  0.00    +0.000 C 
ENDBRANCH  67  68
ENDBRANCH  64  67
ENDBRANCH  60  64
ENDBRANCH  59  61
BRANCH  59  71
ATOM     71  CB  LEU A   2      14.692  22.105  22.041  0.00  0.00    +0.029 C 
BRANCH  71  72
ATOM     72  CG  LEU A   2      13.462  21.218  22.221  0.00  0.00    +0.002 C 
ATOM     73  CD2 LEU A   2      13.773  20.141  23.256  0.00  0.00    +0.000 C 
ATOM     74  CD1 LEU A   2      12.250  22.027  22.643  0.00  0.00    +0.000 C 
ENDBRANCH  71  72
ENDBRANCH  59  71
ENDBRANCH  55  59
ENDBRANCH  54  56
BRANCH  54  75
ATOM     75  CB  ASP A   3      16.592  26.834  19.182  0.00  0.00    +0.143 C 
BRANCH  75  76
ATOM     76  CG  ASP A   3      17.793  27.504  18.527  0.00  0.00    +0.367 C 
ATOM     77  OD2 ASP A   3      18.910  27.455  19.091  0.00  0.00    -0.246 OA
ATOM     78  OD1 ASP A   3      17.625  28.065  17.432  0.00  0.00    -0.246 OA
ENDBRANCH  75  76
ENDBRANCH  54  75
ENDBRANCH  50  54
ENDBRANCH  49  51
BRANCH  49  79
ATOM     79  CB  THR A   4      20.207  26.675  24.022  0.00  0.00    +0.137 C 
ATOM     80  CG2 THR A   4      19.570  25.471  24.662  0.00  0.00    +0.034 C 
BRANCH  79  81
ATOM     81  OG1 THR A   4      21.264  26.265  23.135  0.00  0.00    -0.382 OA
ATOM     82  HG1 THR A   4      21.687  27.066  22.735  0.00  0.00    +0.210 HD
ENDBRANCH  79  81
ENDBRANCH  49  79
ENDBRANCH  45  49
ENDBRANCH  44  47
ENDBRANCH   1  44
TORSDOF 35
REMARK  Name = ../refined-set-2016/2qi4/2qi4_pocket.pdb
REMARK  228 active torsions:
REMARK  status: ('A' for Active; 'I' for Inactive)
REMARK    1  A    between atoms: _1  and  _3
REMARK    2  A    between atoms: _3  and  _4
REMARK    3  A    between atoms: _3  and  _6
REMARK    4  A    between atoms: _6  and  _7
REMARK    5  A    between atoms: _7  and  _8
REMARK    6  A    between atoms: _8  and  _9
REMARK    7  A    between atoms: _18  and  _20
REMARK    8  A    between atoms: _20  and  _21
REMARK    9  A    between atoms: _20  and  _23
REMARK   10  A    between atoms: _23  and  _24
REMARK   11  A    between atoms: _27  and  _29
REMARK   12  A    between atoms: _29  and  _30
REMARK   13  A    between atoms: _29  and  _32
REMARK   14  A    between atoms: _32  and  _33
REMARK   15  A    between atoms: _36  and  _38
REMARK   16  A    between atoms: _38  and  _39
REMARK   17  A    between atoms: _38  and  _41
REMARK   18  A    between atoms: _41  and  _42
REMARK   19  A    between atoms: _45  and  _47
REMARK   20  A    between atoms: _47  and  _48
REMARK   21  A    between atoms: _47  and  _50
REMARK   22  A    between atoms: _50  and  _51
REMARK   23  A    between atoms: _54  and  _56
REMARK   24  A    between atoms: _56  and  _57
REMARK   25  A    between atoms: _59  and  _61
REMARK   26  A    between atoms: _61  and  _62
REMARK   27  A    between atoms: _65  and  _67
REMARK   28  A    between atoms: _67  and  _68
REMARK   29  A    between atoms: _67  and  _70
REMARK   30  A    between atoms: _70  and  _71
REMARK   31  A    between atoms: _74  and  _76
REMARK   32  A    between atoms: _76  and  _77
REMARK   33  A    between atoms: _76  and  _79
REMARK   34  A    between atoms: _79  and  _80
REMARK   35  A    between atoms: _83  and  _85
REMARK   36  A    between atoms: _85  and  _86
REMARK   37  A    between atoms: _85  and  _88
REMARK   38  A    between atoms: _88  and  _89
REMARK   39  A    between atoms: _92  and  _94
REMARK   40  A    between atoms: _94  and  _95
REMARK   41  A    between atoms: _94  and  _97
REMARK   42  A    between atoms: _100  and  _102
REMARK   43  A    between atoms: _102  and  _103
REMARK   44  A    between atoms: _102  and  _105
REMARK   45  A    between atoms: _105  and  _106
REMARK   46  A    between atoms: _106  and  _107
REMARK   47  A    between atoms: _107  and  _108
REMARK   48  A    between atoms: _108  and  _109
REMARK   49  A    between atoms: _113  and  _115
REMARK   50  A    between atoms: _115  and  _116
REMARK   51  A    between atoms: _115  and  _118
REMARK   52  A    between atoms: _118  and  _119
REMARK   53  A    between atoms: _119  and  _120
REMARK   54  A    between atoms: _122  and  _124
REMARK   55  A    between atoms: _124  and  _125
REMARK   56  A    between atoms: _124  and  _127
REMARK   57  A    between atoms: _127  and  _128
REMARK   58  A    between atoms: _131  and  _133
REMARK   59  A    between atoms: _133  and  _134
REMARK   60  A    between atoms: _136  and  _138
REMARK   61  A    between atoms: _138  and  _139
REMARK   62  A    between atoms: _141  and  _143
REMARK   63  A    between atoms: _143  and  _144
REMARK   64  A    between atoms: _143  and  _146
REMARK   65  A    between atoms: _146  and  _147
REMARK   66  A    between atoms: _150  and  _152
REMARK   67  A    between atoms: _152  and  _153
REMARK   68  A    between atoms: _155  and  _157
REMARK   69  A    between atoms: _157  and  _158
REMARK   70  A    between atoms: _160  and  _162
REMARK   71  A    between atoms: _162  and  _163
REMARK   72  A    between atoms: _162  and  _165
REMARK   73  A    between atoms: _165  and  _166
REMARK   74  A    between atoms: _169  and  _171
REMARK   75  A    between atoms: _171  and  _172
REMARK   76  A    between atoms: _171  and  _174
REMARK   77  A    between atoms: _177  and  _179
REMARK   78  A    between atoms: _179  and  _180
REMARK   79  A    between atoms: _179  and  _182
REMARK   80  A    between atoms: _182  and  _183
REMARK   81  A    between atoms: _186  and  _188
REMARK   82  A    between atoms: _188  and  _189
REMARK   83  A    between atoms: _188  and  _191
REMARK   84  A    between atoms: _191  and  _192
REMARK   85  A    between atoms: _196  and  _197
REMARK   86  A    between atoms: _202  and  _204
REMARK   87  A    between atoms: _204  and  _205
REMARK   88  A    between atoms: _204  and  _207
REMARK   89  A    between atoms: _210  and  _212
REMARK   90  A    between atoms: _212  and  _213
REMARK   91  A    between atoms: _212  and  _215
REMARK   92  A    between atoms: _215  and  _216
REMARK   93  A    between atoms: _221  and  _223
REMARK   94  A    between atoms: _223  and  _224
REMARK   95  A    between atoms: _223  and  _226
REMARK   96  A    between atoms: _226  and  _227
REMARK   97  A    between atoms: _230  and  _232
REMARK   98  A    between atoms: _232  and  _233
REMARK   99  A    between atoms: _232  and  _235
REMARK  100  A    between atoms: _235  and  _236
REMARK  101  A    between atoms: _239  and  _241
REMARK  102  A    between atoms: _241  and  _242
REMARK  103  A    between atoms: _244  and  _246
REMARK  104  A    between atoms: _246  and  _247
REMARK  105  A    between atoms: _246  and  _249
REMARK  106  A    between atoms: _249  and  _250
REMARK  107  A    between atoms: _250  and  _251
REMARK  108  A    between atoms: _251  and  _252
REMARK  109  A    between atoms: _261  and  _263
REMARK  110  A    between atoms: _263  and  _264
REMARK  111  A    between atoms: _263  and  _266
REMARK  112  A    between atoms: _266  and  _267
REMARK  113  A    between atoms: _272  and  _274
REMARK  114  A    between atoms: _274  and  _275
REMARK  115  A    between atoms: _274  and  _277
REMARK  116  A    between atoms: _277  and  _278
REMARK  117  A    between atoms: _278  and  _279
REMARK  118  A    between atoms: _279  and  _280
REMARK  119  A    between atoms: _289  and  _291
REMARK  120  A    between atoms: _291  and  _292
REMARK  121  A    between atoms: _291  and  _294
REMARK  122  A    between atoms: _294  and  _295
REMARK  123  A    between atoms: _298  and  _300
REMARK  124  A    between atoms: _300  and  _301
REMARK  125  A    between atoms: _300  and  _303
REMARK  126  A    between atoms: _303  and  _304
REMARK  127  A    between atoms: _307  and  _309
REMARK  128  A    between atoms: _309  and  _310
REMARK  129  A    between atoms: _309  and  _312
REMARK  130  A    between atoms: _312  and  _313
REMARK  131  A    between atoms: _316  and  _318
REMARK  132  A    between atoms: _318  and  _319
REMARK  133  A    between atoms: _318  and  _321
REMARK  134  A    between atoms: _321  and  _322
REMARK  135  A    between atoms: _325  and  _327
REMARK  136  A    between atoms: _327  and  _328
REMARK  137  A    between atoms: _330  and  _332
REMARK  138  A    between atoms: _332  and  _333
REMARK  139  A    between atoms: _336  and  _338
REMARK  140  A    between atoms: _338  and  _339
REMARK  141  A    between atoms: _338  and  _341
REMARK  142  A    between atoms: _341  and  _342
REMARK  143  A    between atoms: _345  and  _347
REMARK  144  A    between atoms: _347  and  _348
REMARK  145  A    between atoms: _347  and  _350
REMARK  146  A    between atoms: _350  and  _351
REMARK  147  A    between atoms: _354  and  _356
REMARK  148  A    between atoms: _356  and  _357
REMARK  149  A    between atoms: _356  and  _359
REMARK  150  A    between atoms: _359  and  _360
REMARK  151  A    between atoms: _363  and  _365
REMARK  152  A    between atoms: _365  and  _366
REMARK  153  A    between atoms: _365  and  _368
REMARK  154  A    between atoms: _371  and  _373
REMARK  155  A    between atoms: _373  and  _374
REMARK  156  A    between atoms: _373  and  _376
REMARK  157  A    between atoms: _376  and  _377
REMARK  158  A    between atoms: _377  and  _378
REMARK  159  A    between atoms: _378  and  _379
REMARK  160  A    between atoms: _379  and  _380
REMARK  161  A    between atoms: _384  and  _386
REMARK  162  A    between atoms: _386  and  _387
REMARK  163  A    between atoms: _386  and  _389
REMARK  164  A    between atoms: _389  and  _390
REMARK  165  A    between atoms: _390  and  _391
REMARK  166  A    between atoms: _393  and  _395
REMARK  167  A    between atoms: _395  and  _396
REMARK  168  A    between atoms: _395  and  _398
REMARK  169  A    between atoms: _398  and  _399
REMARK  170  A    between atoms: _402  and  _404
REMARK  171  A    between atoms: _404  and  _405
REMARK  172  A    between atoms: _407  and  _409
REMARK  173  A    between atoms: _409  and  _410
REMARK  174  A    between atoms: _412  and  _414
REMARK  175  A    between atoms: _414  and  _415
REMARK  176  A    between atoms: _414  and  _417
REMARK  177  A    between atoms: _417  and  _418
REMARK  178  A    between atoms: _421  and  _423
REMARK  179  A    between atoms: _423  and  _424
REMARK  180  A    between atoms: _426  and  _428
REMARK  181  A    between atoms: _428  and  _429
REMARK  182  A    between atoms: _431  and  _433
REMARK  183  A    between atoms: _433  and  _434
REMARK  184  A    between atoms: _433  and  _436
REMARK  185  A    between atoms: _436  and  _437
REMARK  186  A    between atoms: _443  and  _445
REMARK  187  A    between atoms: _445  and  _446
REMARK  188  A    between atoms: _445  and  _448
REMARK  189  A    between atoms: _448  and  _449
REMARK  190  A    between atoms: _452  and  _454
REMARK  191  A    between atoms: _454  and  _455
REMARK  192  A    between atoms: _454  and  _457
REMARK  193  A    between atoms: _460  and  _462
REMARK  194  A    between atoms: _462  and  _463
REMARK  195  A    between atoms: _462  and  _465
REMARK  196  A    between atoms: _465  and  _466
REMARK  197  A    between atoms: _469  and  _471
REMARK  198  A    between atoms: _471  and  _472
REMARK  199  A    between atoms: _471  and  _474
REMARK  200  A    between atoms: _474  and  _475
REMARK  201  A    between atoms: _479  and  _480
REMARK  202  A    between atoms: _485  and  _487
REMARK  203  A    between atoms: _487  and  _488
REMARK  204  A    between atoms: _487  and  _490
REMARK  205  A    between atoms: _493  and  _495
REMARK  206  A    between atoms: _495  and  _496
REMARK  207  A    between atoms: _495  and  _498
REMARK  208  A    between atoms: _498  and  _499
REMARK  209  A    between atoms: _504  and  _506
REMARK  210  A    between atoms: _506  and  _507
REMARK  211  A    between atoms: _506  and  _509
REMARK  212  A    between atoms: _509  and  _510
REMARK  213  A    between atoms: _513  and  _515
REMARK  214  A    between atoms: _515  and  _516
REMARK  215  A    between atoms: _515  and  _518
REMARK  216  A    between atoms: _518  and  _519
REMARK  217  A    between atoms: _522  and  _524
REMARK  218  A    between atoms: _524  and  _525
REMARK  219  A    between atoms: _527  and  _529
REMARK  220  A    between atoms: _529  and  _530
REMARK  221  A    between atoms: _529  and  _532
REMARK  222  A    between atoms: _532  and  _533
REMARK  223  A    between atoms: _533  and  _534
REMARK  224  A    between atoms: _534  and  _535
REMARK  225  A    between atoms: _544  and  _546
REMARK  226  A    between atoms: _546  and  _547
REMARK  227  A    between atoms: _546  and  _549
REMARK  228  A    between atoms: _549  and  _550
REMARK                            x       y       z     vdW  Elec       q    Type
REMARK                         _______ _______ _______ _____ _____    ______ ____
ROOT
ATOM      1  C   GLY A   5      21.395  35.737  11.328  0.00  0.00    +0.243 C 
ATOM      2  N   ILE A   6      21.902  34.527  11.102  0.00  0.00    -0.297 N 
ATOM      3  H   ILE A   6      21.633  33.735  11.720  0.00  0.00    +0.150 HD
ATOM      4  O   GLY A   5      21.725  36.732  10.683  0.00  0.00    -0.273 OA
ENDROOT
BRANCH   2   5
ATOM      5  CA  ILE A   6      22.829  34.297  10.001  0.00  0.00    +0.149 C 
BRANCH   5   6
ATOM      6  C   ILE A   6      22.107  34.607   8.692  0.00  0.00    +0.241 C 
ATOM      7  O   ILE A   6      21.010  34.118   8.469  0.00  0.00    -0.273 OA
ATOM      8  N   GLY A   7      22.714  35.454   7.858  0.00  0.00    -0.295 N 
ATOM      9  H   GLY A   7      23.643  35.838   8.125  0.00  0.00    +0.150 HD
BRANCH   8  10
ATOM     10  CA  GLY A   7      22.125  35.863   6.583  0.00  0.00    +0.176 C 
BRANCH  10  11
ATOM     11  C   GLY A   7      21.381  37.191   6.611  0.00  0.00    +0.243 C 
ATOM     12  N   GLY A   8      21.045  37.674   7.800  0.00  0.00    -0.295 N 
ATOM     13  H   GLY A   8      21.284  37.125   8.650  0.00  0.00    +0.150 HD
ATOM     14  O   GLY A   7      21.104  37.763   5.565  0.00  0.00    -0.273 OA
BRANCH  12  15
ATOM     15  CA  GLY A   8      20.352  38.948   7.957  0.00  0.00    +0.176 C 
BRANCH  15  16
ATOM     16  C   GLY A   8      19.070  38.833   8.750  0.00  0.00    +0.243 C 
ATOM     17  O   GLY A   8      18.933  37.968   9.614  0.00  0.00    -0.273 OA
ATOM     18  N   PHE A   9      18.122  39.721   8.444  0.00  0.00    -0.297 N 
ATOM     19  H   PHE A   9      18.264  40.345   7.624  0.00  0.00    +0.150 HD
BRANCH  18  20
ATOM     20  CA  PHE A   9      16.895  39.845   9.220  0.00  0.00    +0.153 C 
BRANCH  20  21
ATOM     21  C   PHE A   9      15.697  39.336   8.437  0.00  0.00    +0.241 C 
ATOM     22  N   ILE A  10      14.675  38.916   9.177  0.00  0.00    -0.298 N 
ATOM     23  H   ILE A  10      14.822  38.768  10.196  0.00  0.00    +0.150 HD
ATOM     24  O   PHE A   9      15.705  39.327   7.193  0.00  0.00    -0.273 OA
BRANCH  22  25
ATOM     25  CA  ILE A  10      13.358  38.655   8.614  0.00  0.00    +0.137 C 
BRANCH  25  26
ATOM     26  C   ILE A  10      12.314  39.423   9.396  0.00  0.00    +0.227 C 
ATOM     27  O   ILE A  10      12.507  39.774  10.585  0.00  0.00    -0.286 OA
ENDBRANCH  25  26
BRANCH  25  28
ATOM     28  CB  ILE A  10      12.980  37.152   8.615  0.00  0.00    +0.026 C 
ATOM     29  CG2 ILE A  10      13.920  36.378   7.703  0.00  0.00    +0.002 C 
BRANCH  28  30
ATOM     30  CG1 ILE A  10      12.980  36.575  10.033  0.00  0.00    +0.002 C 
ATOM     31  CD1 ILE A  10      12.241  35.257  10.130  0.00  0.00    +0.000 C 
ENDBRANCH  28  30
ENDBRANCH  25  28
ENDBRANCH  22  25
ENDBRANCH  20  21
BRANCH  20  32
ATOM     32  CB  PHE A   9      16.659  41.310   9.604  0.00  0.00    +0.055 C 
BRANCH  32  33
ATOM     33  CG  PHE A   9      17.537  41.797  10.726  0.00  0.00    -0.020 A 
ATOM     34  CD2 PHE A   9      17.012  42.016  11.995  0.00  0.00    -0.004 A 
ATOM     35  CE2 PHE A   9      17.827  42.471  13.030  0.00  0.00    -0.000 A 
ATOM     36  CZ  PHE A   9      19.174  42.708  12.796  0.00  0.00    -0.000 A 
ATOM     37  CE1 PHE A   9      19.706  42.495  11.537  0.00  0.00    -0.000 A 
ATOM     38  CD1 PHE A   9      18.886  42.039  10.511  0.00  0.00    -0.004 A 
ENDBRANCH  32  33
ENDBRANCH  20  32
ENDBRANCH  18  20
ENDBRANCH  15  16
ENDBRANCH  12  15
ENDBRANCH  10  11
ENDBRANCH   8  10
ENDBRANCH   5   6
BRANCH   5  39
ATOM     39  CB  ILE A   6      23.389  32.857  10.024  0.00  0.00    +0.027 C 
ATOM     40  CG2 ILE A   6      24.010  32.481   8.675  0.00  0.00    +0.002 C 
BRANCH  39  41
ATOM     41  CG1 ILE A   6      24.442  32.738  11.136  0.00  0.00    +0.002 C 
ATOM     42  CD1 ILE A   6      24.809  31.321  11.495  0.00  0.00    +0.000 C 
ENDBRANCH  39  41
ENDBRANCH   5  39
ENDBRANCH   2   5
BRANCH   1  43
ATOM     43  CA  GLY A   5      20.384  35.852  12.449  0.00  0.00    +0.176 C 
BRANCH  43  46
ATOM     44  C   GLY A   4      18.983  37.656  13.298  0.00  0.00    +0.243 C 
ATOM     45  O   GLY A   4      18.986  37.205  14.444  0.00  0.00    -0.273 OA
ATOM     46  N   GLY A   5      19.571  37.053  12.275  0.00  0.00    -0.295 N 
ATOM     47  H   GLY A   5      19.450  37.446  11.320  0.00  0.00    +0.150 HD
BRANCH  44  48
ATOM     48  CA  GLY A   4      18.314  38.973  12.971  0.00  0.00    +0.176 C 
BRANCH  48  50
ATOM     49  C   ILE A   3      15.906  39.221  13.149  0.00  0.00    +0.241 C 
ATOM     50  N   GLY A   4      17.102  39.206  13.725  0.00  0.00    -0.295 N 
ATOM     51  H   GLY A   4      17.170  39.367  14.750  0.00  0.00    +0.150 HD
ATOM     52  O   ILE A   3      15.700  38.942  11.960  0.00  0.00    -0.273 OA
BRANCH  49  53
ATOM     53  CA  ILE A   3      14.781  39.654  14.054  0.00  0.00    +0.149 C 
BRANCH  53  56
ATOM     54  C   MET A   2      13.463  41.679  13.669  0.00  0.00    +0.241 C 
ATOM     55  O   MET A   2      13.907  42.236  14.676  0.00  0.00    -0.273 OA
ATOM     56  N   ILE A   3      13.810  40.446  13.297  0.00  0.00    -0.297 N 
ATOM     57  H   ILE A   3      13.378  40.035  12.445  0.00  0.00    +0.150 HD
BRANCH  54  58
ATOM     58  CA  MET A   2      12.472  42.407  12.777  0.00  0.00    +0.149 C 
BRANCH  58  60
ATOM     59  C   LYS A   1      10.133  42.628  13.441  0.00  0.00    +0.238 C 
ATOM     60  N   MET A   2      11.408  42.954  13.611  0.00  0.00    -0.297 N 
ATOM     61  H   MET A   2      11.658  43.624  14.366  0.00  0.00    +0.150 HD
ATOM     62  O   LYS A   1       9.734  41.944  12.495  0.00  0.00    -0.274 OA
BRANCH  59  63
ATOM     63  CA  LYS A   1       9.160  43.158  14.493  0.00  0.00    +0.145 C 
BRANCH  63  64
ATOM     64  N   LYS A   1       7.839  43.217  13.901  0.00  0.00    -0.238 NA
ATOM     65  H   LYS A   1       7.625  42.589  13.100  0.00  0.00    +0.142 HD
ENDBRANCH  63  64
BRANCH  63  66
ATOM     66  CB  LYS A   1       9.126  42.221  15.704  0.00  0.00    +0.026 C 
BRANCH  66  67
ATOM     67  CG  LYS A   1      10.371  42.147  16.549  0.00  0.00    -0.000 C 
BRANCH  67  68
ATOM     68  CD  LYS A   1      10.137  41.179  17.709  0.00  0.00    -0.024 C 
BRANCH  68  69
ATOM     69  CE  LYS A   1      11.409  40.869  18.470  0.00  0.00    -0.086 C 
BRANCH  69  70
ATOM     70  NZ  LYS A   1      11.779  41.951  19.412  0.00  0.00    +0.380 N 
ATOM     71  HZ1 LYS A   1      11.014  42.084  20.104  0.00  0.00    -0.089 HD
ATOM     72  HZ2 LYS A   1      12.655  41.692  19.908  0.00  0.00    -0.089 HD
ATOM     73  HZ3 LYS A   1      11.927  42.834  18.883  0.00  0.00    -0.089 HD
ENDBRANCH  69  70
ENDBRANCH  68  69
ENDBRANCH  67  68
ENDBRANCH  66  67
ENDBRANCH  63  66
ENDBRANCH  59  63
ENDBRANCH  58  60
BRANCH  58  74
ATOM     74  CB  MET A   2      13.182  43.532  12.029  0.00  0.00    +0.041 C 
BRANCH  74  75
ATOM     75  CG  MET A   2      12.386  44.073  10.875  0.00  0.00    +0.060 C 
BRANCH  75  76
ATOM     76  SD  MET A   2      12.691  43.144   9.370  0.00  0.00    -0.139 S 
ATOM     77  CE  MET A   2      14.162  43.971   8.772  0.00  0.00    +0.069 C 
ENDBRANCH  75  76
ENDBRANCH  74  75
ENDBRANCH  58  74
ENDBRANCH  54  58
ENDBRANCH  53  56
BRANCH  53  78
ATOM     78  CB  ILE A   3      14.160  38.446  14.778  0.00  0.00    +0.027 C 
ATOM     79  CG2 ILE A   3      13.239  38.946  15.884  0.00  0.00    +0.002 C 
BRANCH  78  80
ATOM     80  CG1 ILE A   3      13.423  37.524  13.809  0.00  0.00    +0.002 C 
ATOM     81  CD1 ILE A   3      13.119  36.158  14.410  0.00  0.00    +0.000 C 
ENDBRANCH  78  80
ENDBRANCH  53  78
ENDBRANCH  49  53
ENDBRANCH  48  50
ENDBRANCH  44  48
ENDBRANCH  43  46
ENDBRANCH   1  43
TORSDOF 36
REMARK  Name = ../refined-set-2016/2qi4/2qi4_pocket.pdb
REMARK  228 active torsions:
REMARK  status: ('A' for Active; 'I' for Inactive)
REMARK    1  A    between atoms: _1  and  _3
REMARK    2  A    between atoms: _3  and  _4
REMARK    3  A    between atoms: _3  and  _6
REMARK    4  A    between atoms: _6  and  _7
REMARK    5  A    between atoms: _7  and  _8
REMARK    6  A    between atoms: _8  and  _9
REMARK    7  A    between atoms: _18  and  _20
REMARK    8  A    between atoms: _20  and  _21
REMARK    9  A    between atoms: _20  and  _23
REMARK   10  A    between atoms: _23  and  _24
REMARK   11  A    between atoms: _27  and  _29
REMARK   12  A    between atoms: _29  and  _30
REMARK   13  A    between atoms: _29  and  _32
REMARK   14  A    between atoms: _32  and  _33
REMARK   15  A    between atoms: _36  and  _38
REMARK   16  A    between atoms: _38  and  _39
REMARK   17  A    between atoms: _38  and  _41
REMARK   18  A    between atoms: _41  and  _42
REMARK   19  A    between atoms: _45  and  _47
REMARK   20  A    between atoms: _47  and  _48
REMARK   21  A    between atoms: _47  and  _50
REMARK   22  A    between atoms: _50  and  _51
REMARK   23  A    between atoms: _54  and  _56
REMARK   24  A    between atoms: _56  and  _57
REMARK   25  A    between atoms: _59  and  _61
REMARK   26  A    between atoms: _61  and  _62
REMARK   27  A    between atoms: _65  and  _67
REMARK   28  A    between atoms: _67  and  _68
REMARK   29  A    between atoms: _67  and  _70
REMARK   30  A    between atoms: _70  and  _71
REMARK   31  A    between atoms: _74  and  _76
REMARK   32  A    between atoms: _76  and  _77
REMARK   33  A    between atoms: _76  and  _79
REMARK   34  A    between atoms: _79  and  _80
REMARK   35  A    between atoms: _83  and  _85
REMARK   36  A    between atoms: _85  and  _86
REMARK   37  A    between atoms: _85  and  _88
REMARK   38  A    between atoms: _88  and  _89
REMARK   39  A    between atoms: _92  and  _94
REMARK   40  A    between atoms: _94  and  _95
REMARK   41  A    between atoms: _94  and  _97
REMARK   42  A    between atoms: _100  and  _102
REMARK   43  A    between atoms: _102  and  _103
REMARK   44  A    between atoms: _102  and  _105
REMARK   45  A    between atoms: _105  and  _106
REMARK   46  A    between atoms: _106  and  _107
REMARK   47  A    between atoms: _107  and  _108
REMARK   48  A    between atoms: _108  and  _109
REMARK   49  A    between atoms: _113  and  _115
REMARK   50  A    between atoms: _115  and  _116
REMARK   51  A    between atoms: _115  and  _118
REMARK   52  A    between atoms: _118  and  _119
REMARK   53  A    between atoms: _119  and  _120
REMARK   54  A    between atoms: _122  and  _124
REMARK   55  A    between atoms: _124  and  _125
REMARK   56  A    between atoms: _124  and  _127
REMARK   57  A    between atoms: _127  and  _128
REMARK   58  A    between atoms: _131  and  _133
REMARK   59  A    between atoms: _133  and  _134
REMARK   60  A    between atoms: _136  and  _138
REMARK   61  A    between atoms: _138  and  _139
REMARK   62  A    between atoms: _141  and  _143
REMARK   63  A    between atoms: _143  and  _144
REMARK   64  A    between atoms: _143  and  _146
REMARK   65  A    between atoms: _146  and  _147
REMARK   66  A    between atoms: _150  and  _152
REMARK   67  A    between atoms: _152  and  _153
REMARK   68  A    between atoms: _155  and  _157
REMARK   69  A    between atoms: _157  and  _158
REMARK   70  A    between atoms: _160  and  _162
REMARK   71  A    between atoms: _162  and  _163
REMARK   72  A    between atoms: _162  and  _165
REMARK   73  A    between atoms: _165  and  _166
REMARK   74  A    between atoms: _169  and  _171
REMARK   75  A    between atoms: _171  and  _172
REMARK   76  A    between atoms: _171  and  _174
REMARK   77  A    between atoms: _177  and  _179
REMARK   78  A    between atoms: _179  and  _180
REMARK   79  A    between atoms: _179  and  _182
REMARK   80  A    between atoms: _182  and  _183
REMARK   81  A    between atoms: _186  and  _188
REMARK   82  A    between atoms: _188  and  _189
REMARK   83  A    between atoms: _188  and  _191
REMARK   84  A    between atoms: _191  and  _192
REMARK   85  A    between atoms: _196  and  _197
REMARK   86  A    between atoms: _202  and  _204
REMARK   87  A    between atoms: _204  and  _205
REMARK   88  A    between atoms: _204  and  _207
REMARK   89  A    between atoms: _210  and  _212
REMARK   90  A    between atoms: _212  and  _213
REMARK   91  A    between atoms: _212  and  _215
REMARK   92  A    between atoms: _215  and  _216
REMARK   93  A    between atoms: _221  and  _223
REMARK   94  A    between atoms: _223  and  _224
REMARK   95  A    between atoms: _223  and  _226
REMARK   96  A    between atoms: _226  and  _227
REMARK   97  A    between atoms: _230  and  _232
REMARK   98  A    between atoms: _232  and  _233
REMARK   99  A    between atoms: _232  and  _235
REMARK  100  A    between atoms: _235  and  _236
REMARK  101  A    between atoms: _239  and  _241
REMARK  102  A    between atoms: _241  and  _242
REMARK  103  A    between atoms: _244  and  _246
REMARK  104  A    between atoms: _246  and  _247
REMARK  105  A    between atoms: _246  and  _249
REMARK  106  A    between atoms: _249  and  _250
REMARK  107  A    between atoms: _250  and  _251
REMARK  108  A    between atoms: _251  and  _252
REMARK  109  A    between atoms: _261  and  _263
REMARK  110  A    between atoms: _263  and  _264
REMARK  111  A    between atoms: _263  and  _266
REMARK  112  A    between atoms: _266  and  _267
REMARK  113  A    between atoms: _272  and  _274
REMARK  114  A    between atoms: _274  and  _275
REMARK  115  A    between atoms: _274  and  _277
REMARK  116  A    between atoms: _277  and  _278
REMARK  117  A    between atoms: _278  and  _279
REMARK  118  A    between atoms: _279  and  _280
REMARK  119  A    between atoms: _289  and  _291
REMARK  120  A    between atoms: _291  and  _292
REMARK  121  A    between atoms: _291  and  _294
REMARK  122  A    between atoms: _294  and  _295
REMARK  123  A    between atoms: _298  and  _300
REMARK  124  A    between atoms: _300  and  _301
REMARK  125  A    between atoms: _300  and  _303
REMARK  126  A    between atoms: _303  and  _304
REMARK  127  A    between atoms: _307  and  _309
REMARK  128  A    between atoms: _309  and  _310
REMARK  129  A    between atoms: _309  and  _312
REMARK  130  A    between atoms: _312  and  _313
REMARK  131  A    between atoms: _316  and  _318
REMARK  132  A    between atoms: _318  and  _319
REMARK  133  A    between atoms: _318  and  _321
REMARK  134  A    between atoms: _321  and  _322
REMARK  135  A    between atoms: _325  and  _327
REMARK  136  A    between atoms: _327  and  _328
REMARK  137  A    between atoms: _330  and  _332
REMARK  138  A    between atoms: _332  and  _333
REMARK  139  A    between atoms: _336  and  _338
REMARK  140  A    between atoms: _338  and  _339
REMARK  141  A    between atoms: _338  and  _341
REMARK  142  A    between atoms: _341  and  _342
REMARK  143  A    between atoms: _345  and  _347
REMARK  144  A    between atoms: _347  and  _348
REMARK  145  A    between atoms: _347  and  _350
REMARK  146  A    between atoms: _350  and  _351
REMARK  147  A    between atoms: _354  and  _356
REMARK  148  A    between atoms: _356  and  _357
REMARK  149  A    between atoms: _356  and  _359
REMARK  150  A    between atoms: _359  and  _360
REMARK  151  A    between atoms: _363  and  _365
REMARK  152  A    between atoms: _365  and  _366
REMARK  153  A    between atoms: _365  and  _368
REMARK  154  A    between atoms: _371  and  _373
REMARK  155  A    between atoms: _373  and  _374
REMARK  156  A    between atoms: _373  and  _376
REMARK  157  A    between atoms: _376  and  _377
REMARK  158  A    between atoms: _377  and  _378
REMARK  159  A    between atoms: _378  and  _379
REMARK  160  A    between atoms: _379  and  _380
REMARK  161  A    between atoms: _384  and  _386
REMARK  162  A    between atoms: _386  and  _387
REMARK  163  A    between atoms: _386  and  _389
REMARK  164  A    between atoms: _389  and  _390
REMARK  165  A    between atoms: _390  and  _391
REMARK  166  A    between atoms: _393  and  _395
REMARK  167  A    between atoms: _395  and  _396
REMARK  168  A    between atoms: _395  and  _398
REMARK  169  A    between atoms: _398  and  _399
REMARK  170  A    between atoms: _402  and  _404
REMARK  171  A    between atoms: _404  and  _405
REMARK  172  A    between atoms: _407  and  _409
REMARK  173  A    between atoms: _409  and  _410
REMARK  174  A    between atoms: _412  and  _414
REMARK  175  A    between atoms: _414  and  _415
REMARK  176  A    between atoms: _414  and  _417
REMARK  177  A    between atoms: _417  and  _418
REMARK  178  A    between atoms: _421  and  _423
REMARK  179  A    between atoms: _423  and  _424
REMARK  180  A    between atoms: _426  and  _428
REMARK  181  A    between atoms: _428  and  _429
REMARK  182  A    between atoms: _431  and  _433
REMARK  183  A    between atoms: _433  and  _434
REMARK  184  A    between atoms: _433  and  _436
REMARK  185  A    between atoms: _436  and  _437
REMARK  186  A    between atoms: _443  and  _445
REMARK  187  A    between atoms: _445  and  _446
REMARK  188  A    between atoms: _445  and  _448
REMARK  189  A    between atoms: _448  and  _449
REMARK  190  A    between atoms: _452  and  _454
REMARK  191  A    between atoms: _454  and  _455
REMARK  192  A    between atoms: _454  and  _457
REMARK  193  A    between atoms: _460  and  _462
REMARK  194  A    between atoms: _462  and  _463
REMARK  195  A    between atoms: _462  and  _465
REMARK  196  A    between atoms: _465  and  _466
REMARK  197  A    between atoms: _469  and  _471
REMARK  198  A    between atoms: _471  and  _472
REMARK  199  A    between atoms: _471  and  _474
REMARK  200  A    between atoms: _474  and  _475
REMARK  201  A    between atoms: _479  and  _480
REMARK  202  A    between atoms: _485  and  _487
REMARK  203  A    between atoms: _487  and  _488
REMARK  204  A    between atoms: _487  and  _490
REMARK  205  A    between atoms: _493  and  _495
REMARK  206  A    between atoms: _495  and  _496
REMARK  207  A    between atoms: _495  and  _498
REMARK  208  A    between atoms: _498  and  _499
REMARK  209  A    between atoms: _504  and  _506
REMARK  210  A    between atoms: _506  and  _507
REMARK  211  A    between atoms: _506  and  _509
REMARK  212  A    between atoms: _509  and  _510
REMARK  213  A    between atoms: _513  and  _515
REMARK  214  A    between atoms: _515  and  _516
REMARK  215  A    between atoms: _515  and  _518
REMARK  216  A    between atoms: _518  and  _519
REMARK  217  A    between atoms: _522  and  _524
REMARK  218  A    between atoms: _524  and  _525
REMARK  219  A    between atoms: _527  and  _529
REMARK  220  A    between atoms: _529  and  _530
REMARK  221  A    between atoms: _529  and  _532
REMARK  222  A    between atoms: _532  and  _533
REMARK  223  A    between atoms: _533  and  _534
REMARK  224  A    between atoms: _534  and  _535
REMARK  225  A    between atoms: _544  and  _546
REMARK  226  A    between atoms: _546  and  _547
REMARK  227  A    between atoms: _546  and  _549
REMARK  228  A    between atoms: _549  and  _550
REMARK                            x       y       z     vdW  Elec       q    Type
REMARK                         _______ _______ _______ _____ _____    ______ ____
ROOT
ATOM      1  CA  VAL A   1       7.822  38.691  11.899  0.00  0.00    +0.133 C 
ENDROOT
BRANCH   1   2
ATOM      2  CB  VAL A   1       8.574  37.878  12.968  0.00  0.00    +0.023 C 
ATOM      3  CG2 VAL A   1       9.192  38.793  14.031  0.00  0.00    +0.002 C 
ATOM      4  CG1 VAL A   1       9.661  37.039  12.316  0.00  0.00    +0.002 C 
ENDBRANCH   1   2
BRANCH   1   5
ATOM      5  N   VAL A   1       8.717  39.592  11.189  0.00  0.00    -0.239 NA
ATOM      6  H   VAL A   1       9.041  40.460  11.662  0.00  0.00    +0.142 HD
ENDBRANCH   1   5
BRANCH   1   7
ATOM      7  C   VAL A   1       6.675  39.455  12.546  0.00  0.00    +0.224 C 
ATOM      8  O   VAL A   1       6.713  40.687  12.670  0.00  0.00    -0.287 OA
ENDBRANCH   1   7
TORSDOF 3
REMARK  Name = ../refined-set-2016/2qi4/2qi4_pocket.pdb
REMARK  228 active torsions:
REMARK  status: ('A' for Active; 'I' for Inactive)
REMARK    1  A    between atoms: _1  and  _3
REMARK    2  A    between atoms: _3  and  _4
REMARK    3  A    between atoms: _3  and  _6
REMARK    4  A    between atoms: _6  and  _7
REMARK    5  A    between atoms: _7  and  _8
REMARK    6  A    between atoms: _8  and  _9
REMARK    7  A    between atoms: _18  and  _20
REMARK    8  A    between atoms: _20  and  _21
REMARK    9  A    between atoms: _20  and  _23
REMARK   10  A    between atoms: _23  and  _24
REMARK   11  A    between atoms: _27  and  _29
REMARK   12  A    between atoms: _29  and  _30
REMARK   13  A    between atoms: _29  and  _32
REMARK   14  A    between atoms: _32  and  _33
REMARK   15  A    between atoms: _36  and  _38
REMARK   16  A    between atoms: _38  and  _39
REMARK   17  A    between atoms: _38  and  _41
REMARK   18  A    between atoms: _41  and  _42
REMARK   19  A    between atoms: _45  and  _47
REMARK   20  A    between atoms: _47  and  _48
REMARK   21  A    between atoms: _47  and  _50
REMARK   22  A    between atoms: _50  and  _51
REMARK   23  A    between atoms: _54  and  _56
REMARK   24  A    between atoms: _56  and  _57
REMARK   25  A    between atoms: _59  and  _61
REMARK   26  A    between atoms: _61  and  _62
REMARK   27  A    between atoms: _65  and  _67
REMARK   28  A    between atoms: _67  and  _68
REMARK   29  A    between atoms: _67  and  _70
REMARK   30  A    between atoms: _70  and  _71
REMARK   31  A    between atoms: _74  and  _76
REMARK   32  A    between atoms: _76  and  _77
REMARK   33  A    between atoms: _76  and  _79
REMARK   34  A    between atoms: _79  and  _80
REMARK   35  A    between atoms: _83  and  _85
REMARK   36  A    between atoms: _85  and  _86
REMARK   37  A    between atoms: _85  and  _88
REMARK   38  A    between atoms: _88  and  _89
REMARK   39  A    between atoms: _92  and  _94
REMARK   40  A    between atoms: _94  and  _95
REMARK   41  A    between atoms: _94  and  _97
REMARK   42  A    between atoms: _100  and  _102
REMARK   43  A    between atoms: _102  and  _103
REMARK   44  A    between atoms: _102  and  _105
REMARK   45  A    between atoms: _105  and  _106
REMARK   46  A    between atoms: _106  and  _107
REMARK   47  A    between atoms: _107  and  _108
REMARK   48  A    between atoms: _108  and  _109
REMARK   49  A    between atoms: _113  and  _115
REMARK   50  A    between atoms: _115  and  _116
REMARK   51  A    between atoms: _115  and  _118
REMARK   52  A    between atoms: _118  and  _119
REMARK   53  A    between atoms: _119  and  _120
REMARK   54  A    between atoms: _122  and  _124
REMARK   55  A    between atoms: _124  and  _125
REMARK   56  A    between atoms: _124  and  _127
REMARK   57  A    between atoms: _127  and  _128
REMARK   58  A    between atoms: _131  and  _133
REMARK   59  A    between atoms: _133  and  _134
REMARK   60  A    between atoms: _136  and  _138
REMARK   61  A    between atoms: _138  and  _139
REMARK   62  A    between atoms: _141  and  _143
REMARK   63  A    between atoms: _143  and  _144
REMARK   64  A    between atoms: _143  and  _146
REMARK   65  A    between atoms: _146  and  _147
REMARK   66  A    between atoms: _150  and  _152
REMARK   67  A    between atoms: _152  and  _153
REMARK   68  A    between atoms: _155  and  _157
REMARK   69  A    between atoms: _157  and  _158
REMARK   70  A    between atoms: _160  and  _162
REMARK   71  A    between atoms: _162  and  _163
REMARK   72  A    between atoms: _162  and  _165
REMARK   73  A    between atoms: _165  and  _166
REMARK   74  A    between atoms: _169  and  _171
REMARK   75  A    between atoms: _171  and  _172
REMARK   76  A    between atoms: _171  and  _174
REMARK   77  A    between atoms: _177  and  _179
REMARK   78  A    between atoms: _179  and  _180
REMARK   79  A    between atoms: _179  and  _182
REMARK   80  A    between atoms: _182  and  _183
REMARK   81  A    between atoms: _186  and  _188
REMARK   82  A    between atoms: _188  and  _189
REMARK   83  A    between atoms: _188  and  _191
REMARK   84  A    between atoms: _191  and  _192
REMARK   85  A    between atoms: _196  and  _197
REMARK   86  A    between atoms: _202  and  _204
REMARK   87  A    between atoms: _204  and  _205
REMARK   88  A    between atoms: _204  and  _207
REMARK   89  A    between atoms: _210  and  _212
REMARK   90  A    between atoms: _212  and  _213
REMARK   91  A    between atoms: _212  and  _215
REMARK   92  A    between atoms: _215  and  _216
REMARK   93  A    between atoms: _221  and  _223
REMARK   94  A    between atoms: _223  and  _224
REMARK   95  A    between atoms: _223  and  _226
REMARK   96  A    between atoms: _226  and  _227
REMARK   97  A    between atoms: _230  and  _232
REMARK   98  A    between atoms: _232  and  _233
REMARK   99  A    between atoms: _232  and  _235
REMARK  100  A    between atoms: _235  and  _236
REMARK  101  A    between atoms: _239  and  _241
REMARK  102  A    between atoms: _241  and  _242
REMARK  103  A    between atoms: _244  and  _246
REMARK  104  A    between atoms: _246  and  _247
REMARK  105  A    between atoms: _246  and  _249
REMARK  106  A    between atoms: _249  and  _250
REMARK  107  A    between atoms: _250  and  _251
REMARK  108  A    between atoms: _251  and  _252
REMARK  109  A    between atoms: _261  and  _263
REMARK  110  A    between atoms: _263  and  _264
REMARK  111  A    between atoms: _263  and  _266
REMARK  112  A    between atoms: _266  and  _267
REMARK  113  A    between atoms: _272  and  _274
REMARK  114  A    between atoms: _274  and  _275
REMARK  115  A    between atoms: _274  and  _277
REMARK  116  A    between atoms: _277  and  _278
REMARK  117  A    between atoms: _278  and  _279
REMARK  118  A    between atoms: _279  and  _280
REMARK  119  A    between atoms: _289  and  _291
REMARK  120  A    between atoms: _291  and  _292
REMARK  121  A    between atoms: _291  and  _294
REMARK  122  A    between atoms: _294  and  _295
REMARK  123  A    between atoms: _298  and  _300
REMARK  124  A    between atoms: _300  and  _301
REMARK  125  A    between atoms: _300  and  _303
REMARK  126  A    between atoms: _303  and  _304
REMARK  127  A    between atoms: _307  and  _309
REMARK  128  A    between atoms: _309  and  _310
REMARK  129  A    between atoms: _309  and  _312
REMARK  130  A    between atoms: _312  and  _313
REMARK  131  A    between atoms: _316  and  _318
REMARK  132  A    between atoms: _318  and  _319
REMARK  133  A    between atoms: _318  and  _321
REMARK  134  A    between atoms: _321  and  _322
REMARK  135  A    between atoms: _325  and  _327
REMARK  136  A    between atoms: _327  and  _328
REMARK  137  A    between atoms: _330  and  _332
REMARK  138  A    between atoms: _332  and  _333
REMARK  139  A    between atoms: _336  and  _338
REMARK  140  A    between atoms: _338  and  _339
REMARK  141  A    between atoms: _338  and  _341
REMARK  142  A    between atoms: _341  and  _342
REMARK  143  A    between atoms: _345  and  _347
REMARK  144  A    between atoms: _347  and  _348
REMARK  145  A    between atoms: _347  and  _350
REMARK  146  A    between atoms: _350  and  _351
REMARK  147  A    between atoms: _354  and  _356
REMARK  148  A    between atoms: _356  and  _357
REMARK  149  A    between atoms: _356  and  _359
REMARK  150  A    between atoms: _359  and  _360
REMARK  151  A    between atoms: _363  and  _365
REMARK  152  A    between atoms: _365  and  _366
REMARK  153  A    between atoms: _365  and  _368
REMARK  154  A    between atoms: _371  and  _373
REMARK  155  A    between atoms: _373  and  _374
REMARK  156  A    between atoms: _373  and  _376
REMARK  157  A    between atoms: _376  and  _377
REMARK  158  A    between atoms: _377  and  _378
REMARK  159  A    between atoms: _378  and  _379
REMARK  160  A    between atoms: _379  and  _380
REMARK  161  A    between atoms: _384  and  _386
REMARK  162  A    between atoms: _386  and  _387
REMARK  163  A    between atoms: _386  and  _389
REMARK  164  A    between atoms: _389  and  _390
REMARK  165  A    between atoms: _390  and  _391
REMARK  166  A    between atoms: _393  and  _395
REMARK  167  A    between atoms: _395  and  _396
REMARK  168  A    between atoms: _395  and  _398
REMARK  169  A    between atoms: _398  and  _399
REMARK  170  A    between atoms: _402  and  _404
REMARK  171  A    between atoms: _404  and  _405
REMARK  172  A    between atoms: _407  and  _409
REMARK  173  A    between atoms: _409  and  _410
REMARK  174  A    between atoms: _412  and  _414
REMARK  175  A    between atoms: _414  and  _415
REMARK  176  A    between atoms: _414  and  _417
REMARK  177  A    between atoms: _417  and  _418
REMARK  178  A    between atoms: _421  and  _423
REMARK  179  A    between atoms: _423  and  _424
REMARK  180  A    between atoms: _426  and  _428
REMARK  181  A    between atoms: _428  and  _429
REMARK  182  A    between atoms: _431  and  _433
REMARK  183  A    between atoms: _433  and  _434
REMARK  184  A    between atoms: _433  and  _436
REMARK  185  A    between atoms: _436  and  _437
REMARK  186  A    between atoms: _443  and  _445
REMARK  187  A    between atoms: _445  and  _446
REMARK  188  A    between atoms: _445  and  _448
REMARK  189  A    between atoms: _448  and  _449
REMARK  190  A    between atoms: _452  and  _454
REMARK  191  A    between atoms: _454  and  _455
REMARK  192  A    between atoms: _454  and  _457
REMARK  193  A    between atoms: _460  and  _462
REMARK  194  A    between atoms: _462  and  _463
REMARK  195  A    between atoms: _462  and  _465
REMARK  196  A    between atoms: _465  and  _466
REMARK  197  A    between atoms: _469  and  _471
REMARK  198  A    between atoms: _471  and  _472
REMARK  199  A    between atoms: _471  and  _474
REMARK  200  A    between atoms: _474  and  _475
REMARK  201  A    between atoms: _479  and  _480
REMARK  202  A    between atoms: _485  and  _487
REMARK  203  A    between atoms: _487  and  _488
REMARK  204  A    between atoms: _487  and  _490
REMARK  205  A    between atoms: _493  and  _495
REMARK  206  A    between atoms: _495  and  _496
REMARK  207  A    between atoms: _495  and  _498
REMARK  208  A    between atoms: _498  and  _499
REMARK  209  A    between atoms: _504  and  _506
REMARK  210  A    between atoms: _506  and  _507
REMARK  211  A    between atoms: _506  and  _509
REMARK  212  A    between atoms: _509  and  _510
REMARK  213  A    between atoms: _513  and  _515
REMARK  214  A    between atoms: _515  and  _516
REMARK  215  A    between atoms: _515  and  _518
REMARK  216  A    between atoms: _518  and  _519
REMARK  217  A    between atoms: _522  and  _524
REMARK  218  A    between atoms: _524  and  _525
REMARK  219  A    between atoms: _527  and  _529
REMARK  220  A    between atoms: _529  and  _530
REMARK  221  A    between atoms: _529  and  _532
REMARK  222  A    between atoms: _532  and  _533
REMARK  223  A    between atoms: _533  and  _534
REMARK  224  A    between atoms: _534  and  _535
REMARK  225  A    between atoms: _544  and  _546
REMARK  226  A    between atoms: _546  and  _547
REMARK  227  A    between atoms: _546  and  _549
REMARK  228  A    between atoms: _549  and  _550
REMARK                            x       y       z     vdW  Elec       q    Type
REMARK                         _______ _______ _______ _____ _____    ______ ____
ROOT
ATOM      1  CA  LEU A   1       7.004  35.411  16.568  0.00  0.00    +0.133 C 
ENDROOT
BRANCH   1   2
ATOM      2  N   LEU A   1       6.744  34.607  17.750  0.00  0.00    -0.239 NA
ATOM      3  H   LEU A   1       7.459  33.910  18.040  0.00  0.00    +0.142 HD
ENDBRANCH   1   2
BRANCH   1   4
ATOM      4  C   LEU A   1       6.676  34.564  15.361  0.00  0.00    +0.224 C 
ATOM      5  O   LEU A   1       7.141  33.433  15.251  0.00  0.00    -0.287 OA
ENDBRANCH   1   4
BRANCH   1   6
ATOM      6  CB  LEU A   1       8.468  35.842  16.520  0.00  0.00    +0.025 C 
BRANCH   6   7
ATOM      7  CG  LEU A   1       8.979  36.582  17.763  0.00  0.00    +0.002 C 
ATOM      8  CD2 LEU A   1       8.130  37.794  18.069  0.00  0.00    +0.000 C 
ATOM      9  CD1 LEU A   1      10.432  36.988  17.576  0.00  0.00    +0.000 C 
ENDBRANCH   6   7
ENDBRANCH   1   6
TORSDOF 4
REMARK  Name = ../refined-set-2016/2qi4/2qi4_pocket.pdb
REMARK  228 active torsions:
REMARK  status: ('A' for Active; 'I' for Inactive)
REMARK    1  A    between atoms: _1  and  _3
REMARK    2  A    between atoms: _3  and  _4
REMARK    3  A    between atoms: _3  and  _6
REMARK    4  A    between atoms: _6  and  _7
REMARK    5  A    between atoms: _7  and  _8
REMARK    6  A    between atoms: _8  and  _9
REMARK    7  A    between atoms: _18  and  _20
REMARK    8  A    between atoms: _20  and  _21
REMARK    9  A    between atoms: _20  and  _23
REMARK   10  A    between atoms: _23  and  _24
REMARK   11  A    between atoms: _27  and  _29
REMARK   12  A    between atoms: _29  and  _30
REMARK   13  A    between atoms: _29  and  _32
REMARK   14  A    between atoms: _32  and  _33
REMARK   15  A    between atoms: _36  and  _38
REMARK   16  A    between atoms: _38  and  _39
REMARK   17  A    between atoms: _38  and  _41
REMARK   18  A    between atoms: _41  and  _42
REMARK   19  A    between atoms: _45  and  _47
REMARK   20  A    between atoms: _47  and  _48
REMARK   21  A    between atoms: _47  and  _50
REMARK   22  A    between atoms: _50  and  _51
REMARK   23  A    between atoms: _54  and  _56
REMARK   24  A    between atoms: _56  and  _57
REMARK   25  A    between atoms: _59  and  _61
REMARK   26  A    between atoms: _61  and  _62
REMARK   27  A    between atoms: _65  and  _67
REMARK   28  A    between atoms: _67  and  _68
REMARK   29  A    between atoms: _67  and  _70
REMARK   30  A    between atoms: _70  and  _71
REMARK   31  A    between atoms: _74  and  _76
REMARK   32  A    between atoms: _76  and  _77
REMARK   33  A    between atoms: _76  and  _79
REMARK   34  A    between atoms: _79  and  _80
REMARK   35  A    between atoms: _83  and  _85
REMARK   36  A    between atoms: _85  and  _86
REMARK   37  A    between atoms: _85  and  _88
REMARK   38  A    between atoms: _88  and  _89
REMARK   39  A    between atoms: _92  and  _94
REMARK   40  A    between atoms: _94  and  _95
REMARK   41  A    between atoms: _94  and  _97
REMARK   42  A    between atoms: _100  and  _102
REMARK   43  A    between atoms: _102  and  _103
REMARK   44  A    between atoms: _102  and  _105
REMARK   45  A    between atoms: _105  and  _106
REMARK   46  A    between atoms: _106  and  _107
REMARK   47  A    between atoms: _107  and  _108
REMARK   48  A    between atoms: _108  and  _109
REMARK   49  A    between atoms: _113  and  _115
REMARK   50  A    between atoms: _115  and  _116
REMARK   51  A    between atoms: _115  and  _118
REMARK   52  A    between atoms: _118  and  _119
REMARK   53  A    between atoms: _119  and  _120
REMARK   54  A    between atoms: _122  and  _124
REMARK   55  A    between atoms: _124  and  _125
REMARK   56  A    between atoms: _124  and  _127
REMARK   57  A    between atoms: _127  and  _128
REMARK   58  A    between atoms: _131  and  _133
REMARK   59  A    between atoms: _133  and  _134
REMARK   60  A    between atoms: _136  and  _138
REMARK   61  A    between atoms: _138  and  _139
REMARK   62  A    between atoms: _141  and  _143
REMARK   63  A    between atoms: _143  and  _144
REMARK   64  A    between atoms: _143  and  _146
REMARK   65  A    between atoms: _146  and  _147
REMARK   66  A    between atoms: _150  and  _152
REMARK   67  A    between atoms: _152  and  _153
REMARK   68  A    between atoms: _155  and  _157
REMARK   69  A    between atoms: _157  and  _158
REMARK   70  A    between atoms: _160  and  _162
REMARK   71  A    between atoms: _162  and  _163
REMARK   72  A    between atoms: _162  and  _165
REMARK   73  A    between atoms: _165  and  _166
REMARK   74  A    between atoms: _169  and  _171
REMARK   75  A    between atoms: _171  and  _172
REMARK   76  A    between atoms: _171  and  _174
REMARK   77  A    between atoms: _177  and  _179
REMARK   78  A    between atoms: _179  and  _180
REMARK   79  A    between atoms: _179  and  _182
REMARK   80  A    between atoms: _182  and  _183
REMARK   81  A    between atoms: _186  and  _188
REMARK   82  A    between atoms: _188  and  _189
REMARK   83  A    between atoms: _188  and  _191
REMARK   84  A    between atoms: _191  and  _192
REMARK   85  A    between atoms: _196  and  _197
REMARK   86  A    between atoms: _202  and  _204
REMARK   87  A    between atoms: _204  and  _205
REMARK   88  A    between atoms: _204  and  _207
REMARK   89  A    between atoms: _210  and  _212
REMARK   90  A    between atoms: _212  and  _213
REMARK   91  A    between atoms: _212  and  _215
REMARK   92  A    between atoms: _215  and  _216
REMARK   93  A    between atoms: _221  and  _223
REMARK   94  A    between atoms: _223  and  _224
REMARK   95  A    between atoms: _223  and  _226
REMARK   96  A    between atoms: _226  and  _227
REMARK   97  A    between atoms: _230  and  _232
REMARK   98  A    between atoms: _232  and  _233
REMARK   99  A    between atoms: _232  and  _235
REMARK  100  A    between atoms: _235  and  _236
REMARK  101  A    between atoms: _239  and  _241
REMARK  102  A    between atoms: _241  and  _242
REMARK  103  A    between atoms: _244  and  _246
REMARK  104  A    between atoms: _246  and  _247
REMARK  105  A    between atoms: _246  and  _249
REMARK  106  A    between atoms: _249  and  _250
REMARK  107  A    between atoms: _250  and  _251
REMARK  108  A    between atoms: _251  and  _252
REMARK  109  A    between atoms: _261  and  _263
REMARK  110  A    between atoms: _263  and  _264
REMARK  111  A    between atoms: _263  and  _266
REMARK  112  A    between atoms: _266  and  _267
REMARK  113  A    between atoms: _272  and  _274
REMARK  114  A    between atoms: _274  and  _275
REMARK  115  A    between atoms: _274  and  _277
REMARK  116  A    between atoms: _277  and  _278
REMARK  117  A    between atoms: _278  and  _279
REMARK  118  A    between atoms: _279  and  _280
REMARK  119  A    between atoms: _289  and  _291
REMARK  120  A    between atoms: _291  and  _292
REMARK  121  A    between atoms: _291  and  _294
REMARK  122  A    between atoms: _294  and  _295
REMARK  123  A    between atoms: _298  and  _300
REMARK  124  A    between atoms: _300  and  _301
REMARK  125  A    between atoms: _300  and  _303
REMARK  126  A    between atoms: _303  and  _304
REMARK  127  A    between atoms: _307  and  _309
REMARK  128  A    between atoms: _309  and  _310
REMARK  129  A    between atoms: _309  and  _312
REMARK  130  A    between atoms: _312  and  _313
REMARK  131  A    between atoms: _316  and  _318
REMARK  132  A    between atoms: _318  and  _319
REMARK  133  A    between atoms: _318  and  _321
REMARK  134  A    between atoms: _321  and  _322
REMARK  135  A    between atoms: _325  and  _327
REMARK  136  A    between atoms: _327  and  _328
REMARK  137  A    between atoms: _330  and  _332
REMARK  138  A    between atoms: _332  and  _333
REMARK  139  A    between atoms: _336  and  _338
REMARK  140  A    between atoms: _338  and  _339
REMARK  141  A    between atoms: _338  and  _341
REMARK  142  A    between atoms: _341  and  _342
REMARK  143  A    between atoms: _345  and  _347
REMARK  144  A    between atoms: _347  and  _348
REMARK  145  A    between atoms: _347  and  _350
REMARK  146  A    between atoms: _350  and  _351
REMARK  147  A    between atoms: _354  and  _356
REMARK  148  A    between atoms: _356  and  _357
REMARK  149  A    between atoms: _356  and  _359
REMARK  150  A    between atoms: _359  and  _360
REMARK  151  A    between atoms: _363  and  _365
REMARK  152  A    between atoms: _365  and  _366
REMARK  153  A    between atoms: _365  and  _368
REMARK  154  A    between atoms: _371  and  _373
REMARK  155  A    between atoms: _373  and  _374
REMARK  156  A    between atoms: _373  and  _376
REMARK  157  A    between atoms: _376  and  _377
REMARK  158  A    between atoms: _377  and  _378
REMARK  159  A    between atoms: _378  and  _379
REMARK  160  A    between atoms: _379  and  _380
REMARK  161  A    between atoms: _384  and  _386
REMARK  162  A    between atoms: _386  and  _387
REMARK  163  A    between atoms: _386  and  _389
REMARK  164  A    between atoms: _389  and  _390
REMARK  165  A    between atoms: _390  and  _391
REMARK  166  A    between atoms: _393  and  _395
REMARK  167  A    between atoms: _395  and  _396
REMARK  168  A    between atoms: _395  and  _398
REMARK  169  A    between atoms: _398  and  _399
REMARK  170  A    between atoms: _402  and  _404
REMARK  171  A    between atoms: _404  and  _405
REMARK  172  A    between atoms: _407  and  _409
REMARK  173  A    between atoms: _409  and  _410
REMARK  174  A    between atoms: _412  and  _414
REMARK  175  A    between atoms: _414  and  _415
REMARK  176  A    between atoms: _414  and  _417
REMARK  177  A    between atoms: _417  and  _418
REMARK  178  A    between atoms: _421  and  _423
REMARK  179  A    between atoms: _423  and  _424
REMARK  180  A    between atoms: _426  and  _428
REMARK  181  A    between atoms: _428  and  _429
REMARK  182  A    between atoms: _431  and  _433
REMARK  183  A    between atoms: _433  and  _434
REMARK  184  A    between atoms: _433  and  _436
REMARK  185  A    between atoms: _436  and  _437
REMARK  186  A    between atoms: _443  and  _445
REMARK  187  A    between atoms: _445  and  _446
REMARK  188  A    between atoms: _445  and  _448
REMARK  189  A    between atoms: _448  and  _449
REMARK  190  A    between atoms: _452  and  _454
REMARK  191  A    between atoms: _454  and  _455
REMARK  192  A    between atoms: _454  and  _457
REMARK  193  A    between atoms: _460  and  _462
REMARK  194  A    between atoms: _462  and  _463
REMARK  195  A    between atoms: _462  and  _465
REMARK  196  A    between atoms: _465  and  _466
REMARK  197  A    between atoms: _469  and  _471
REMARK  198  A    between atoms: _471  and  _472
REMARK  199  A    between atoms: _471  and  _474
REMARK  200  A    between atoms: _474  and  _475
REMARK  201  A    between atoms: _479  and  _480
REMARK  202  A    between atoms: _485  and  _487
REMARK  203  A    between atoms: _487  and  _488
REMARK  204  A    between atoms: _487  and  _490
REMARK  205  A    between atoms: _493  and  _495
REMARK  206  A    between atoms: _495  and  _496
REMARK  207  A    between atoms: _495  and  _498
REMARK  208  A    between atoms: _498  and  _499
REMARK  209  A    between atoms: _504  and  _506
REMARK  210  A    between atoms: _506  and  _507
REMARK  211  A    between atoms: _506  and  _509
REMARK  212  A    between atoms: _509  and  _510
REMARK  213  A    between atoms: _513  and  _515
REMARK  214  A    between atoms: _515  and  _516
REMARK  215  A    between atoms: _515  and  _518
REMARK  216  A    between atoms: _518  and  _519
REMARK  217  A    between atoms: _522  and  _524
REMARK  218  A    between atoms: _524  and  _525
REMARK  219  A    between atoms: _527  and  _529
REMARK  220  A    between atoms: _529  and  _530
REMARK  221  A    between atoms: _529  and  _532
REMARK  222  A    between atoms: _532  and  _533
REMARK  223  A    between atoms: _533  and  _534
REMARK  224  A    between atoms: _534  and  _535
REMARK  225  A    between atoms: _544  and  _546
REMARK  226  A    between atoms: _546  and  _547
REMARK  227  A    between atoms: _546  and  _549
REMARK  228  A    between atoms: _549  and  _550
REMARK                            x       y       z     vdW  Elec       q    Type
REMARK                         _______ _______ _______ _____ _____    ______ ____
ROOT
ATOM      1  C   ILE A   5      11.558  27.748  18.056  0.00  0.00    +0.241 C 
ATOM      2  N   ILE A   6      11.788  26.856  19.022  0.00  0.00    -0.297 N 
ATOM      3  H   ILE A   6      12.271  25.965  18.786  0.00  0.00    +0.150 HD
ATOM      4  O   ILE A   5      10.856  28.761  18.216  0.00  0.00    -0.273 OA
ENDROOT
BRANCH   2   5
ATOM      5  CA  ILE A   6      11.378  27.101  20.400  0.00  0.00    +0.149 C 
BRANCH   5   6
ATOM      6  C   ILE A   6      12.542  27.753  21.109  0.00  0.00    +0.241 C 
ATOM      7  N   GLY A   7      12.351  29.018  21.467  0.00  0.00    -0.295 N 
ATOM      8  H   GLY A   7      11.429  29.458  21.275  0.00  0.00    +0.150 HD
ATOM      9  O   ILE A   6      13.587  27.129  21.320  0.00  0.00    -0.273 OA
BRANCH   7  10
ATOM     10  CA  GLY A   7      13.380  29.809  22.116  0.00  0.00    +0.176 C 
BRANCH  10  11
ATOM     11  C   GLY A   7      13.325  29.799  23.623  0.00  0.00    +0.243 C 
ATOM     12  O   GLY A   7      12.433  29.202  24.246  0.00  0.00    -0.273 OA
ATOM     13  N   ARG A   8      14.303  30.481  24.212  0.00  0.00    -0.297 N 
ATOM     14  H   ARG A   8      14.956  31.034  23.621  0.00  0.00    +0.150 HD
BRANCH  13  15
ATOM     15  CA  ARG A   8      14.492  30.480  25.658  0.00  0.00    +0.149 C 
BRANCH  15  16
ATOM     16  C   ARG A   8      13.269  30.939  26.447  0.00  0.00    +0.241 C 
ATOM     17  O   ARG A   8      13.042  30.459  27.568  0.00  0.00    -0.273 OA
ATOM     18  N   ASN A   9      12.476  31.848  25.875  0.00  0.00    -0.298 N 
ATOM     19  H   ASN A   9      12.716  32.219  24.934  0.00  0.00    +0.150 HD
BRANCH  18  20
ATOM     20  CA  ASN A   9      11.268  32.331  26.558  0.00  0.00    +0.146 C 
BRANCH  20  21
ATOM     21  C   ASN A   9      10.308  31.192  26.952  0.00  0.00    +0.227 C 
ATOM     22  O   ASN A   9       9.638  31.270  27.982  0.00  0.00    -0.286 OA
ENDBRANCH  20  21
BRANCH  20  23
ATOM     23  CB  ASN A   9      10.546  33.402  25.733  0.00  0.00    +0.112 C 
BRANCH  23  24
ATOM     24  CG  ASN A   9       9.872  32.849  24.489  0.00  0.00    +0.222 C 
ATOM     25  ND2 ASN A   9       8.568  33.153  24.326  0.00  0.00    -0.329 N 
ATOM     26 HD21 ASN A   9       8.072  33.719  25.044  0.00  0.00    +0.145 HD
ATOM     27 HD22 ASN A   9       8.058  32.821  23.482  0.00  0.00    +0.145 HD
ATOM     28  OD1 ASN A   9      10.508  32.182  23.671  0.00  0.00    -0.275 OA
ENDBRANCH  23  24
ENDBRANCH  20  23
ENDBRANCH  18  20
ENDBRANCH  15  16
BRANCH  15  29
ATOM     29  CB  ARG A   8      15.714  31.317  26.034  0.00  0.00    +0.033 C 
BRANCH  29  30
ATOM     30  CG  ARG A   8      17.032  30.650  25.629  0.00  0.00    +0.045 C 
BRANCH  30  31
ATOM     31  CD  ARG A   8      18.271  31.413  26.113  0.00  0.00    +0.174 C 
BRANCH  31  32
ATOM     32  NE  ARG A   8      18.293  32.807  25.673  0.00  0.00    -0.265 N 
ATOM     33  CZ  ARG A   8      17.902  33.856  26.397  0.00  0.00    +0.342 C 
ATOM     34  NH2 ARG A   8      17.446  33.714  27.636  0.00  0.00    -0.292 N 
ATOM     35 HH21 ARG A   8      17.147  34.549  28.179  0.00  0.00    +0.255 HD
ATOM     36 HH22 ARG A   8      17.387  32.768  28.063  0.00  0.00    +0.255 HD
ATOM     37  NH1 ARG A   8      17.965  35.071  25.871  0.00  0.00    -0.292 N 
ATOM     38 HH11 ARG A   8      17.662  35.895  26.428  0.00  0.00    +0.255 HD
ATOM     39 HH12 ARG A   8      18.317  35.200  24.901  0.00  0.00    +0.255 HD
ATOM     40  HE  ARG A   8      18.644  32.997  24.713  0.00  0.00    +0.259 HD
ENDBRANCH  31  32
ENDBRANCH  30  31
ENDBRANCH  29  30
ENDBRANCH  15  29
ENDBRANCH  13  15
ENDBRANCH  10  11
ENDBRANCH   7  10
ENDBRANCH   5   6
BRANCH   5  41
ATOM     41  CB  ILE A   6      10.939  25.820  21.124  0.00  0.00    +0.027 C 
ATOM     42  CG2 ILE A   6      10.495  26.132  22.563  0.00  0.00    +0.002 C 
BRANCH  41  43
ATOM     43  CG1 ILE A   6       9.803  25.156  20.341  0.00  0.00    +0.002 C 
ATOM     44  CD1 ILE A   6       8.587  26.043  20.119  0.00  0.00    +0.000 C 
ENDBRANCH  41  43
ENDBRANCH   5  41
ENDBRANCH   2   5
BRANCH   1  45
ATOM     45  CA  ILE A   5      12.184  27.452  16.696  0.00  0.00    +0.149 C 
BRANCH  45  47
ATOM     46  C   ASN A   4      11.043  26.202  14.924  0.00  0.00    +0.241 C 
ATOM     47  N   ILE A   5      11.129  27.268  15.713  0.00  0.00    -0.297 N 
ATOM     48  H   ILE A   5      10.404  28.008  15.623  0.00  0.00    +0.150 HD
ATOM     49  O   ASN A   4      11.757  25.203  15.050  0.00  0.00    -0.273 OA
BRANCH  46  50
ATOM     50  CA  ASN A   4       9.990  26.277  13.817  0.00  0.00    +0.158 C 
BRANCH  50  52
ATOM     51  C   VAL A   3      11.466  26.622  11.908  0.00  0.00    +0.241 C 
ATOM     52  N   ASN A   4      10.609  25.845  12.565  0.00  0.00    -0.297 N 
ATOM     53  H   ASN A   4      10.374  24.908  12.179  0.00  0.00    +0.150 HD
ATOM     54  O   VAL A   3      11.701  27.794  12.225  0.00  0.00    -0.273 OA
BRANCH  51  55
ATOM     55  CA  VAL A   3      12.154  25.986  10.710  0.00  0.00    +0.149 C 
BRANCH  55  57
ATOM     56  C   PRO A   2      12.283  26.683   8.381  0.00  0.00    +0.241 C 
ATOM     57  N   VAL A   3      12.400  26.974   9.669  0.00  0.00    -0.297 N 
ATOM     58  H   VAL A   3      12.676  27.938   9.945  0.00  0.00    +0.150 HD
ATOM     59  O   PRO A   2      11.981  25.567   7.965  0.00  0.00    -0.273 OA
BRANCH  56  66
ATOM     60  C   THR A   1      11.377  29.723   8.341  0.00  0.00    +0.244 C 
ATOM     61  O   THR A   1      10.287  29.187   8.128  0.00  0.00    -0.273 OA
ATOM     62  N   PRO A   2      12.541  29.153   7.982  0.00  0.00    -0.272 N 
ATOM     63  CD  PRO A   2      13.888  29.740   8.096  0.00  0.00    +0.094 C 
ATOM     64  CG  PRO A   2      14.797  28.644   7.655  0.00  0.00    +0.024 C 
ATOM     65  CB  PRO A   2      14.001  27.688   6.864  0.00  0.00    +0.031 C 
ATOM     66  CA  PRO A   2      12.570  27.812   7.393  0.00  0.00    +0.152 C 
BRANCH  60  67
ATOM     67  CA  THR A   1      11.448  31.094   9.032  0.00  0.00    +0.172 C 
BRANCH  67  68
ATOM     68  N   THR A   1      10.324  31.909   8.591  0.00  0.00    -0.236 NA
ATOM     69  H   THR A   1       9.458  31.929   9.167  0.00  0.00    +0.142 HD
ENDBRANCH  67  68
BRANCH  67  70
ATOM     70  CB  THR A   1      11.491  30.936  10.577  0.00  0.00    +0.135 C 
ATOM     71  CG2 THR A   1      10.167  30.395  11.141  0.00  0.00    +0.034 C 
BRANCH  70  72
ATOM     72  OG1 THR A   1      12.546  30.036  10.938  0.00  0.00    -0.383 OA
ATOM     73  HG1 THR A   1      12.382  29.153  10.521  0.00  0.00    +0.210 HD
ENDBRANCH  70  72
ENDBRANCH  67  70
ENDBRANCH  60  67
ENDBRANCH  56  66
ENDBRANCH  55  57
BRANCH  55  74
ATOM     74  CB  VAL A   3      13.469  25.311  11.164  0.00  0.00    +0.027 C 
ATOM     75  CG2 VAL A   3      14.506  26.348  11.585  0.00  0.00    +0.002 C 
ATOM     76  CG1 VAL A   3      14.016  24.421  10.061  0.00  0.00    +0.002 C 
ENDBRANCH  55  74
ENDBRANCH  51  55
ENDBRANCH  50  52
BRANCH  50  77
ATOM     77  CB  ASN A   4       8.793  25.415  14.199  0.00  0.00    +0.114 C 
BRANCH  77  78
ATOM     78  CG  ASN A   4       7.629  25.561  13.245  0.00  0.00    +0.222 C 
ATOM     79  OD1 ASN A   4       7.123  26.663  13.025  0.00  0.00    -0.275 OA
ATOM     80  ND2 ASN A   4       7.170  24.442  12.703  0.00  0.00    -0.329 N 
ATOM     81 HD21 ASN A   4       7.629  23.534  12.917  0.00  0.00    +0.145 HD
ATOM     82 HD22 ASN A   4       6.351  24.472  12.063  0.00  0.00    +0.145 HD
ENDBRANCH  77  78
ENDBRANCH  50  77
ENDBRANCH  46  50
ENDBRANCH  45  47
BRANCH  45  83
ATOM     83  CB  ILE A   5      13.106  28.621  16.289  0.00  0.00    +0.027 C 
ATOM     84  CG2 ILE A   5      14.095  28.979  17.412  0.00  0.00    +0.002 C 
BRANCH  83  85
ATOM     85  CG1 ILE A   5      13.878  28.269  15.019  0.00  0.00    +0.002 C 
ATOM     86  CD1 ILE A   5      14.481  29.456  14.323  0.00  0.00    +0.000 C 
ENDBRANCH  83  85
ENDBRANCH  45  83
ENDBRANCH   1  45
TORSDOF 32
REMARK  Name = ../refined-set-2016/2qi4/2qi4_pocket.pdb
REMARK  228 active torsions:
REMARK  status: ('A' for Active; 'I' for Inactive)
REMARK    1  A    between atoms: _1  and  _3
REMARK    2  A    between atoms: _3  and  _4
REMARK    3  A    between atoms: _3  and  _6
REMARK    4  A    between atoms: _6  and  _7
REMARK    5  A    between atoms: _7  and  _8
REMARK    6  A    between atoms: _8  and  _9
REMARK    7  A    between atoms: _18  and  _20
REMARK    8  A    between atoms: _20  and  _21
REMARK    9  A    between atoms: _20  and  _23
REMARK   10  A    between atoms: _23  and  _24
REMARK   11  A    between atoms: _27  and  _29
REMARK   12  A    between atoms: _29  and  _30
REMARK   13  A    between atoms: _29  and  _32
REMARK   14  A    between atoms: _32  and  _33
REMARK   15  A    between atoms: _36  and  _38
REMARK   16  A    between atoms: _38  and  _39
REMARK   17  A    between atoms: _38  and  _41
REMARK   18  A    between atoms: _41  and  _42
REMARK   19  A    between atoms: _45  and  _47
REMARK   20  A    between atoms: _47  and  _48
REMARK   21  A    between atoms: _47  and  _50
REMARK   22  A    between atoms: _50  and  _51
REMARK   23  A    between atoms: _54  and  _56
REMARK   24  A    between atoms: _56  and  _57
REMARK   25  A    between atoms: _59  and  _61
REMARK   26  A    between atoms: _61  and  _62
REMARK   27  A    between atoms: _65  and  _67
REMARK   28  A    between atoms: _67  and  _68
REMARK   29  A    between atoms: _67  and  _70
REMARK   30  A    between atoms: _70  and  _71
REMARK   31  A    between atoms: _74  and  _76
REMARK   32  A    between atoms: _76  and  _77
REMARK   33  A    between atoms: _76  and  _79
REMARK   34  A    between atoms: _79  and  _80
REMARK   35  A    between atoms: _83  and  _85
REMARK   36  A    between atoms: _85  and  _86
REMARK   37  A    between atoms: _85  and  _88
REMARK   38  A    between atoms: _88  and  _89
REMARK   39  A    between atoms: _92  and  _94
REMARK   40  A    between atoms: _94  and  _95
REMARK   41  A    between atoms: _94  and  _97
REMARK   42  A    between atoms: _100  and  _102
REMARK   43  A    between atoms: _102  and  _103
REMARK   44  A    between atoms: _102  and  _105
REMARK   45  A    between atoms: _105  and  _106
REMARK   46  A    between atoms: _106  and  _107
REMARK   47  A    between atoms: _107  and  _108
REMARK   48  A    between atoms: _108  and  _109
REMARK   49  A    between atoms: _113  and  _115
REMARK   50  A    between atoms: _115  and  _116
REMARK   51  A    between atoms: _115  and  _118
REMARK   52  A    between atoms: _118  and  _119
REMARK   53  A    between atoms: _119  and  _120
REMARK   54  A    between atoms: _122  and  _124
REMARK   55  A    between atoms: _124  and  _125
REMARK   56  A    between atoms: _124  and  _127
REMARK   57  A    between atoms: _127  and  _128
REMARK   58  A    between atoms: _131  and  _133
REMARK   59  A    between atoms: _133  and  _134
REMARK   60  A    between atoms: _136  and  _138
REMARK   61  A    between atoms: _138  and  _139
REMARK   62  A    between atoms: _141  and  _143
REMARK   63  A    between atoms: _143  and  _144
REMARK   64  A    between atoms: _143  and  _146
REMARK   65  A    between atoms: _146  and  _147
REMARK   66  A    between atoms: _150  and  _152
REMARK   67  A    between atoms: _152  and  _153
REMARK   68  A    between atoms: _155  and  _157
REMARK   69  A    between atoms: _157  and  _158
REMARK   70  A    between atoms: _160  and  _162
REMARK   71  A    between atoms: _162  and  _163
REMARK   72  A    between atoms: _162  and  _165
REMARK   73  A    between atoms: _165  and  _166
REMARK   74  A    between atoms: _169  and  _171
REMARK   75  A    between atoms: _171  and  _172
REMARK   76  A    between atoms: _171  and  _174
REMARK   77  A    between atoms: _177  and  _179
REMARK   78  A    between atoms: _179  and  _180
REMARK   79  A    between atoms: _179  and  _182
REMARK   80  A    between atoms: _182  and  _183
REMARK   81  A    between atoms: _186  and  _188
REMARK   82  A    between atoms: _188  and  _189
REMARK   83  A    between atoms: _188  and  _191
REMARK   84  A    between atoms: _191  and  _192
REMARK   85  A    between atoms: _196  and  _197
REMARK   86  A    between atoms: _202  and  _204
REMARK   87  A    between atoms: _204  and  _205
REMARK   88  A    between atoms: _204  and  _207
REMARK   89  A    between atoms: _210  and  _212
REMARK   90  A    between atoms: _212  and  _213
REMARK   91  A    between atoms: _212  and  _215
REMARK   92  A    between atoms: _215  and  _216
REMARK   93  A    between atoms: _221  and  _223
REMARK   94  A    between atoms: _223  and  _224
REMARK   95  A    between atoms: _223  and  _226
REMARK   96  A    between atoms: _226  and  _227
REMARK   97  A    between atoms: _230  and  _232
REMARK   98  A    between atoms: _232  and  _233
REMARK   99  A    between atoms: _232  and  _235
REMARK  100  A    between atoms: _235  and  _236
REMARK  101  A    between atoms: _239  and  _241
REMARK  102  A    between atoms: _241  and  _242
REMARK  103  A    between atoms: _244  and  _246
REMARK  104  A    between atoms: _246  and  _247
REMARK  105  A    between atoms: _246  and  _249
REMARK  106  A    between atoms: _249  and  _250
REMARK  107  A    between atoms: _250  and  _251
REMARK  108  A    between atoms: _251  and  _252
REMARK  109  A    between atoms: _261  and  _263
REMARK  110  A    between atoms: _263  and  _264
REMARK  111  A    between atoms: _263  and  _266
REMARK  112  A    between atoms: _266  and  _267
REMARK  113  A    between atoms: _272  and  _274
REMARK  114  A    between atoms: _274  and  _275
REMARK  115  A    between atoms: _274  and  _277
REMARK  116  A    between atoms: _277  and  _278
REMARK  117  A    between atoms: _278  and  _279
REMARK  118  A    between atoms: _279  and  _280
REMARK  119  A    between atoms: _289  and  _291
REMARK  120  A    between atoms: _291  and  _292
REMARK  121  A    between atoms: _291  and  _294
REMARK  122  A    between atoms: _294  and  _295
REMARK  123  A    between atoms: _298  and  _300
REMARK  124  A    between atoms: _300  and  _301
REMARK  125  A    between atoms: _300  and  _303
REMARK  126  A    between atoms: _303  and  _304
REMARK  127  A    between atoms: _307  and  _309
REMARK  128  A    between atoms: _309  and  _310
REMARK  129  A    between atoms: _309  and  _312
REMARK  130  A    between atoms: _312  and  _313
REMARK  131  A    between atoms: _316  and  _318
REMARK  132  A    between atoms: _318  and  _319
REMARK  133  A    between atoms: _318  and  _321
REMARK  134  A    between atoms: _321  and  _322
REMARK  135  A    between atoms: _325  and  _327
REMARK  136  A    between atoms: _327  and  _328
REMARK  137  A    between atoms: _330  and  _332
REMARK  138  A    between atoms: _332  and  _333
REMARK  139  A    between atoms: _336  and  _338
REMARK  140  A    between atoms: _338  and  _339
REMARK  141  A    between atoms: _338  and  _341
REMARK  142  A    between atoms: _341  and  _342
REMARK  143  A    between atoms: _345  and  _347
REMARK  144  A    between atoms: _347  and  _348
REMARK  145  A    between atoms: _347  and  _350
REMARK  146  A    between atoms: _350  and  _351
REMARK  147  A    between atoms: _354  and  _356
REMARK  148  A    between atoms: _356  and  _357
REMARK  149  A    between atoms: _356  and  _359
REMARK  150  A    between atoms: _359  and  _360
REMARK  151  A    between atoms: _363  and  _365
REMARK  152  A    between atoms: _365  and  _366
REMARK  153  A    between atoms: _365  and  _368
REMARK  154  A    between atoms: _371  and  _373
REMARK  155  A    between atoms: _373  and  _374
REMARK  156  A    between atoms: _373  and  _376
REMARK  157  A    between atoms: _376  and  _377
REMARK  158  A    between atoms: _377  and  _378
REMARK  159  A    between atoms: _378  and  _379
REMARK  160  A    between atoms: _379  and  _380
REMARK  161  A    between atoms: _384  and  _386
REMARK  162  A    between atoms: _386  and  _387
REMARK  163  A    between atoms: _386  and  _389
REMARK  164  A    between atoms: _389  and  _390
REMARK  165  A    between atoms: _390  and  _391
REMARK  166  A    between atoms: _393  and  _395
REMARK  167  A    between atoms: _395  and  _396
REMARK  168  A    between atoms: _395  and  _398
REMARK  169  A    between atoms: _398  and  _399
REMARK  170  A    between atoms: _402  and  _404
REMARK  171  A    between atoms: _404  and  _405
REMARK  172  A    between atoms: _407  and  _409
REMARK  173  A    between atoms: _409  and  _410
REMARK  174  A    between atoms: _412  and  _414
REMARK  175  A    between atoms: _414  and  _415
REMARK  176  A    between atoms: _414  and  _417
REMARK  177  A    between atoms: _417  and  _418
REMARK  178  A    between atoms: _421  and  _423
REMARK  179  A    between atoms: _423  and  _424
REMARK  180  A    between atoms: _426  and  _428
REMARK  181  A    between atoms: _428  and  _429
REMARK  182  A    between atoms: _431  and  _433
REMARK  183  A    between atoms: _433  and  _434
REMARK  184  A    between atoms: _433  and  _436
REMARK  185  A    between atoms: _436  and  _437
REMARK  186  A    between atoms: _443  and  _445
REMARK  187  A    between atoms: _445  and  _446
REMARK  188  A    between atoms: _445  and  _448
REMARK  189  A    between atoms: _448  and  _449
REMARK  190  A    between atoms: _452  and  _454
REMARK  191  A    between atoms: _454  and  _455
REMARK  192  A    between atoms: _454  and  _457
REMARK  193  A    between atoms: _460  and  _462
REMARK  194  A    between atoms: _462  and  _463
REMARK  195  A    between atoms: _462  and  _465
REMARK  196  A    between atoms: _465  and  _466
REMARK  197  A    between atoms: _469  and  _471
REMARK  198  A    between atoms: _471  and  _472
REMARK  199  A    between atoms: _471  and  _474
REMARK  200  A    between atoms: _474  and  _475
REMARK  201  A    between atoms: _479  and  _480
REMARK  202  A    between atoms: _485  and  _487
REMARK  203  A    between atoms: _487  and  _488
REMARK  204  A    between atoms: _487  and  _490
REMARK  205  A    between atoms: _493  and  _495
REMARK  206  A    between atoms: _495  and  _496
REMARK  207  A    between atoms: _495  and  _498
REMARK  208  A    between atoms: _498  and  _499
REMARK  209  A    between atoms: _504  and  _506
REMARK  210  A    between atoms: _506  and  _507
REMARK  211  A    between atoms: _506  and  _509
REMARK  212  A    between atoms: _509  and  _510
REMARK  213  A    between atoms: _513  and  _515
REMARK  214  A    between atoms: _515  and  _516
REMARK  215  A    between atoms: _515  and  _518
REMARK  216  A    between atoms: _518  and  _519
REMARK  217  A    between atoms: _522  and  _524
REMARK  218  A    between atoms: _524  and  _525
REMARK  219  A    between atoms: _527  and  _529
REMARK  220  A    between atoms: _529  and  _530
REMARK  221  A    between atoms: _529  and  _532
REMARK  222  A    between atoms: _532  and  _533
REMARK  223  A    between atoms: _533  and  _534
REMARK  224  A    between atoms: _534  and  _535
REMARK  225  A    between atoms: _544  and  _546
REMARK  226  A    between atoms: _546  and  _547
REMARK  227  A    between atoms: _546  and  _549
REMARK  228  A    between atoms: _549  and  _550
REMARK                            x       y       z     vdW  Elec       q    Type
REMARK                         _______ _______ _______ _____ _____    ______ ____
ROOT
ATOM      1  O   HOH     1      20.130  21.783  15.531  0.00  0.00    +0.000 OA
ENDROOT
TORSDOF 0
REMARK  Name = ../refined-set-2016/2qi4/2qi4_pocket.pdb
REMARK  228 active torsions:
REMARK  status: ('A' for Active; 'I' for Inactive)
REMARK    1  A    between atoms: _1  and  _3
REMARK    2  A    between atoms: _3  and  _4
REMARK    3  A    between atoms: _3  and  _6
REMARK    4  A    between atoms: _6  and  _7
REMARK    5  A    between atoms: _7  and  _8
REMARK    6  A    between atoms: _8  and  _9
REMARK    7  A    between atoms: _18  and  _20
REMARK    8  A    between atoms: _20  and  _21
REMARK    9  A    between atoms: _20  and  _23
REMARK   10  A    between atoms: _23  and  _24
REMARK   11  A    between atoms: _27  and  _29
REMARK   12  A    between atoms: _29  and  _30
REMARK   13  A    between atoms: _29  and  _32
REMARK   14  A    between atoms: _32  and  _33
REMARK   15  A    between atoms: _36  and  _38
REMARK   16  A    between atoms: _38  and  _39
REMARK   17  A    between atoms: _38  and  _41
REMARK   18  A    between atoms: _41  and  _42
REMARK   19  A    between atoms: _45  and  _47
REMARK   20  A    between atoms: _47  and  _48
REMARK   21  A    between atoms: _47  and  _50
REMARK   22  A    between atoms: _50  and  _51
REMARK   23  A    between atoms: _54  and  _56
REMARK   24  A    between atoms: _56  and  _57
REMARK   25  A    between atoms: _59  and  _61
REMARK   26  A    between atoms: _61  and  _62
REMARK   27  A    between atoms: _65  and  _67
REMARK   28  A    between atoms: _67  and  _68
REMARK   29  A    between atoms: _67  and  _70
REMARK   30  A    between atoms: _70  and  _71
REMARK   31  A    between atoms: _74  and  _76
REMARK   32  A    between atoms: _76  and  _77
REMARK   33  A    between atoms: _76  and  _79
REMARK   34  A    between atoms: _79  and  _80
REMARK   35  A    between atoms: _83  and  _85
REMARK   36  A    between atoms: _85  and  _86
REMARK   37  A    between atoms: _85  and  _88
REMARK   38  A    between atoms: _88  and  _89
REMARK   39  A    between atoms: _92  and  _94
REMARK   40  A    between atoms: _94  and  _95
REMARK   41  A    between atoms: _94  and  _97
REMARK   42  A    between atoms: _100  and  _102
REMARK   43  A    between atoms: _102  and  _103
REMARK   44  A    between atoms: _102  and  _105
REMARK   45  A    between atoms: _105  and  _106
REMARK   46  A    between atoms: _106  and  _107
REMARK   47  A    between atoms: _107  and  _108
REMARK   48  A    between atoms: _108  and  _109
REMARK   49  A    between atoms: _113  and  _115
REMARK   50  A    between atoms: _115  and  _116
REMARK   51  A    between atoms: _115  and  _118
REMARK   52  A    between atoms: _118  and  _119
REMARK   53  A    between atoms: _119  and  _120
REMARK   54  A    between atoms: _122  and  _124
REMARK   55  A    between atoms: _124  and  _125
REMARK   56  A    between atoms: _124  and  _127
REMARK   57  A    between atoms: _127  and  _128
REMARK   58  A    between atoms: _131  and  _133
REMARK   59  A    between atoms: _133  and  _134
REMARK   60  A    between atoms: _136  and  _138
REMARK   61  A    between atoms: _138  and  _139
REMARK   62  A    between atoms: _141  and  _143
REMARK   63  A    between atoms: _143  and  _144
REMARK   64  A    between atoms: _143  and  _146
REMARK   65  A    between atoms: _146  and  _147
REMARK   66  A    between atoms: _150  and  _152
REMARK   67  A    between atoms: _152  and  _153
REMARK   68  A    between atoms: _155  and  _157
REMARK   69  A    between atoms: _157  and  _158
REMARK   70  A    between atoms: _160  and  _162
REMARK   71  A    between atoms: _162  and  _163
REMARK   72  A    between atoms: _162  and  _165
REMARK   73  A    between atoms: _165  and  _166
REMARK   74  A    between atoms: _169  and  _171
REMARK   75  A    between atoms: _171  and  _172
REMARK   76  A    between atoms: _171  and  _174
REMARK   77  A    between atoms: _177  and  _179
REMARK   78  A    between atoms: _179  and  _180
REMARK   79  A    between atoms: _179  and  _182
REMARK   80  A    between atoms: _182  and  _183
REMARK   81  A    between atoms: _186  and  _188
REMARK   82  A    between atoms: _188  and  _189
REMARK   83  A    between atoms: _188  and  _191
REMARK   84  A    between atoms: _191  and  _192
REMARK   85  A    between atoms: _196  and  _197
REMARK   86  A    between atoms: _202  and  _204
REMARK   87  A    between atoms: _204  and  _205
REMARK   88  A    between atoms: _204  and  _207
REMARK   89  A    between atoms: _210  and  _212
REMARK   90  A    between atoms: _212  and  _213
REMARK   91  A    between atoms: _212  and  _215
REMARK   92  A    between atoms: _215  and  _216
REMARK   93  A    between atoms: _221  and  _223
REMARK   94  A    between atoms: _223  and  _224
REMARK   95  A    between atoms: _223  and  _226
REMARK   96  A    between atoms: _226  and  _227
REMARK   97  A    between atoms: _230  and  _232
REMARK   98  A    between atoms: _232  and  _233
REMARK   99  A    between atoms: _232  and  _235
REMARK  100  A    between atoms: _235  and  _236
REMARK  101  A    between atoms: _239  and  _241
REMARK  102  A    between atoms: _241  and  _242
REMARK  103  A    between atoms: _244  and  _246
REMARK  104  A    between atoms: _246  and  _247
REMARK  105  A    between atoms: _246  and  _249
REMARK  106  A    between atoms: _249  and  _250
REMARK  107  A    between atoms: _250  and  _251
REMARK  108  A    between atoms: _251  and  _252
REMARK  109  A    between atoms: _261  and  _263
REMARK  110  A    between atoms: _263  and  _264
REMARK  111  A    between atoms: _263  and  _266
REMARK  112  A    between atoms: _266  and  _267
REMARK  113  A    between atoms: _272  and  _274
REMARK  114  A    between atoms: _274  and  _275
REMARK  115  A    between atoms: _274  and  _277
REMARK  116  A    between atoms: _277  and  _278
REMARK  117  A    between atoms: _278  and  _279
REMARK  118  A    between atoms: _279  and  _280
REMARK  119  A    between atoms: _289  and  _291
REMARK  120  A    between atoms: _291  and  _292
REMARK  121  A    between atoms: _291  and  _294
REMARK  122  A    between atoms: _294  and  _295
REMARK  123  A    between atoms: _298  and  _300
REMARK  124  A    between atoms: _300  and  _301
REMARK  125  A    between atoms: _300  and  _303
REMARK  126  A    between atoms: _303  and  _304
REMARK  127  A    between atoms: _307  and  _309
REMARK  128  A    between atoms: _309  and  _310
REMARK  129  A    between atoms: _309  and  _312
REMARK  130  A    between atoms: _312  and  _313
REMARK  131  A    between atoms: _316  and  _318
REMARK  132  A    between atoms: _318  and  _319
REMARK  133  A    between atoms: _318  and  _321
REMARK  134  A    between atoms: _321  and  _322
REMARK  135  A    between atoms: _325  and  _327
REMARK  136  A    between atoms: _327  and  _328
REMARK  137  A    between atoms: _330  and  _332
REMARK  138  A    between atoms: _332  and  _333
REMARK  139  A    between atoms: _336  and  _338
REMARK  140  A    between atoms: _338  and  _339
REMARK  141  A    between atoms: _338  and  _341
REMARK  142  A    between atoms: _341  and  _342
REMARK  143  A    between atoms: _345  and  _347
REMARK  144  A    between atoms: _347  and  _348
REMARK  145  A    between atoms: _347  and  _350
REMARK  146  A    between atoms: _350  and  _351
REMARK  147  A    between atoms: _354  and  _356
REMARK  148  A    between atoms: _356  and  _357
REMARK  149  A    between atoms: _356  and  _359
REMARK  150  A    between atoms: _359  and  _360
REMARK  151  A    between atoms: _363  and  _365
REMARK  152  A    between atoms: _365  and  _366
REMARK  153  A    between atoms: _365  and  _368
REMARK  154  A    between atoms: _371  and  _373
REMARK  155  A    between atoms: _373  and  _374
REMARK  156  A    between atoms: _373  and  _376
REMARK  157  A    between atoms: _376  and  _377
REMARK  158  A    between atoms: _377  and  _378
REMARK  159  A    between atoms: _378  and  _379
REMARK  160  A    between atoms: _379  and  _380
REMARK  161  A    between atoms: _384  and  _386
REMARK  162  A    between atoms: _386  and  _387
REMARK  163  A    between atoms: _386  and  _389
REMARK  164  A    between atoms: _389  and  _390
REMARK  165  A    between atoms: _390  and  _391
REMARK  166  A    between atoms: _393  and  _395
REMARK  167  A    between atoms: _395  and  _396
REMARK  168  A    between atoms: _395  and  _398
REMARK  169  A    between atoms: _398  and  _399
REMARK  170  A    between atoms: _402  and  _404
REMARK  171  A    between atoms: _404  and  _405
REMARK  172  A    between atoms: _407  and  _409
REMARK  173  A    between atoms: _409  and  _410
REMARK  174  A    between atoms: _412  and  _414
REMARK  175  A    between atoms: _414  and  _415
REMARK  176  A    between atoms: _414  and  _417
REMARK  177  A    between atoms: _417  and  _418
REMARK  178  A    between atoms: _421  and  _423
REMARK  179  A    between atoms: _423  and  _424
REMARK  180  A    between atoms: _426  and  _428
REMARK  181  A    between atoms: _428  and  _429
REMARK  182  A    between atoms: _431  and  _433
REMARK  183  A    between atoms: _433  and  _434
REMARK  184  A    between atoms: _433  and  _436
REMARK  185  A    between atoms: _436  and  _437
REMARK  186  A    between atoms: _443  and  _445
REMARK  187  A    between atoms: _445  and  _446
REMARK  188  A    between atoms: _445  and  _448
REMARK  189  A    between atoms: _448  and  _449
REMARK  190  A    between atoms: _452  and  _454
REMARK  191  A    between atoms: _454  and  _455
REMARK  192  A    between atoms: _454  and  _457
REMARK  193  A    between atoms: _460  and  _462
REMARK  194  A    between atoms: _462  and  _463
REMARK  195  A    between atoms: _462  and  _465
REMARK  196  A    between atoms: _465  and  _466
REMARK  197  A    between atoms: _469  and  _471
REMARK  198  A    between atoms: _471  and  _472
REMARK  199  A    between atoms: _471  and  _474
REMARK  200  A    between atoms: _474  and  _475
REMARK  201  A    between atoms: _479  and  _480
REMARK  202  A    between atoms: _485  and  _487
REMARK  203  A    between atoms: _487  and  _488
REMARK  204  A    between atoms: _487  and  _490
REMARK  205  A    between atoms: _493  and  _495
REMARK  206  A    between atoms: _495  and  _496
REMARK  207  A    between atoms: _495  and  _498
REMARK  208  A    between atoms: _498  and  _499
REMARK  209  A    between atoms: _504  and  _506
REMARK  210  A    between atoms: _506  and  _507
REMARK  211  A    between atoms: _506  and  _509
REMARK  212  A    between atoms: _509  and  _510
REMARK  213  A    between atoms: _513  and  _515
REMARK  214  A    between atoms: _515  and  _516
REMARK  215  A    between atoms: _515  and  _518
REMARK  216  A    between atoms: _518  and  _519
REMARK  217  A    between atoms: _522  and  _524
REMARK  218  A    between atoms: _524  and  _525
REMARK  219  A    between atoms: _527  and  _529
REMARK  220  A    between atoms: _529  and  _530
REMARK  221  A    between atoms: _529  and  _532
REMARK  222  A    between atoms: _532  and  _533
REMARK  223  A    between atoms: _533  and  _534
REMARK  224  A    between atoms: _534  and  _535
REMARK  225  A    between atoms: _544  and  _546
REMARK  226  A    between atoms: _546  and  _547
REMARK  227  A    between atoms: _546  and  _549
REMARK  228  A    between atoms: _549  and  _550
REMARK                            x       y       z     vdW  Elec       q    Type
REMARK                         _______ _______ _______ _____ _____    ______ ____
ROOT
ATOM      1  O   HOH     1      19.644  23.159  13.127  0.00  0.00    +0.000 OA
ENDROOT
TORSDOF 0
REMARK  Name = ../refined-set-2016/2qi4/2qi4_pocket.pdb
REMARK  228 active torsions:
REMARK  status: ('A' for Active; 'I' for Inactive)
REMARK    1  A    between atoms: _1  and  _3
REMARK    2  A    between atoms: _3  and  _4
REMARK    3  A    between atoms: _3  and  _6
REMARK    4  A    between atoms: _6  and  _7
REMARK    5  A    between atoms: _7  and  _8
REMARK    6  A    between atoms: _8  and  _9
REMARK    7  A    between atoms: _18  and  _20
REMARK    8  A    between atoms: _20  and  _21
REMARK    9  A    between atoms: _20  and  _23
REMARK   10  A    between atoms: _23  and  _24
REMARK   11  A    between atoms: _27  and  _29
REMARK   12  A    between atoms: _29  and  _30
REMARK   13  A    between atoms: _29  and  _32
REMARK   14  A    between atoms: _32  and  _33
REMARK   15  A    between atoms: _36  and  _38
REMARK   16  A    between atoms: _38  and  _39
REMARK   17  A    between atoms: _38  and  _41
REMARK   18  A    between atoms: _41  and  _42
REMARK   19  A    between atoms: _45  and  _47
REMARK   20  A    between atoms: _47  and  _48
REMARK   21  A    between atoms: _47  and  _50
REMARK   22  A    between atoms: _50  and  _51
REMARK   23  A    between atoms: _54  and  _56
REMARK   24  A    between atoms: _56  and  _57
REMARK   25  A    between atoms: _59  and  _61
REMARK   26  A    between atoms: _61  and  _62
REMARK   27  A    between atoms: _65  and  _67
REMARK   28  A    between atoms: _67  and  _68
REMARK   29  A    between atoms: _67  and  _70
REMARK   30  A    between atoms: _70  and  _71
REMARK   31  A    between atoms: _74  and  _76
REMARK   32  A    between atoms: _76  and  _77
REMARK   33  A    between atoms: _76  and  _79
REMARK   34  A    between atoms: _79  and  _80
REMARK   35  A    between atoms: _83  and  _85
REMARK   36  A    between atoms: _85  and  _86
REMARK   37  A    between atoms: _85  and  _88
REMARK   38  A    between atoms: _88  and  _89
REMARK   39  A    between atoms: _92  and  _94
REMARK   40  A    between atoms: _94  and  _95
REMARK   41  A    between atoms: _94  and  _97
REMARK   42  A    between atoms: _100  and  _102
REMARK   43  A    between atoms: _102  and  _103
REMARK   44  A    between atoms: _102  and  _105
REMARK   45  A    between atoms: _105  and  _106
REMARK   46  A    between atoms: _106  and  _107
REMARK   47  A    between atoms: _107  and  _108
REMARK   48  A    between atoms: _108  and  _109
REMARK   49  A    between atoms: _113  and  _115
REMARK   50  A    between atoms: _115  and  _116
REMARK   51  A    between atoms: _115  and  _118
REMARK   52  A    between atoms: _118  and  _119
REMARK   53  A    between atoms: _119  and  _120
REMARK   54  A    between atoms: _122  and  _124
REMARK   55  A    between atoms: _124  and  _125
REMARK   56  A    between atoms: _124  and  _127
REMARK   57  A    between atoms: _127  and  _128
REMARK   58  A    between atoms: _131  and  _133
REMARK   59  A    between atoms: _133  and  _134
REMARK   60  A    between atoms: _136  and  _138
REMARK   61  A    between atoms: _138  and  _139
REMARK   62  A    between atoms: _141  and  _143
REMARK   63  A    between atoms: _143  and  _144
REMARK   64  A    between atoms: _143  and  _146
REMARK   65  A    between atoms: _146  and  _147
REMARK   66  A    between atoms: _150  and  _152
REMARK   67  A    between atoms: _152  and  _153
REMARK   68  A    between atoms: _155  and  _157
REMARK   69  A    between atoms: _157  and  _158
REMARK   70  A    between atoms: _160  and  _162
REMARK   71  A    between atoms: _162  and  _163
REMARK   72  A    between atoms: _162  and  _165
REMARK   73  A    between atoms: _165  and  _166
REMARK   74  A    between atoms: _169  and  _171
REMARK   75  A    between atoms: _171  and  _172
REMARK   76  A    between atoms: _171  and  _174
REMARK   77  A    between atoms: _177  and  _179
REMARK   78  A    between atoms: _179  and  _180
REMARK   79  A    between atoms: _179  and  _182
REMARK   80  A    between atoms: _182  and  _183
REMARK   81  A    between atoms: _186  and  _188
REMARK   82  A    between atoms: _188  and  _189
REMARK   83  A    between atoms: _188  and  _191
REMARK   84  A    between atoms: _191  and  _192
REMARK   85  A    between atoms: _196  and  _197
REMARK   86  A    between atoms: _202  and  _204
REMARK   87  A    between atoms: _204  and  _205
REMARK   88  A    between atoms: _204  and  _207
REMARK   89  A    between atoms: _210  and  _212
REMARK   90  A    between atoms: _212  and  _213
REMARK   91  A    between atoms: _212  and  _215
REMARK   92  A    between atoms: _215  and  _216
REMARK   93  A    between atoms: _221  and  _223
REMARK   94  A    between atoms: _223  and  _224
REMARK   95  A    between atoms: _223  and  _226
REMARK   96  A    between atoms: _226  and  _227
REMARK   97  A    between atoms: _230  and  _232
REMARK   98  A    between atoms: _232  and  _233
REMARK   99  A    between atoms: _232  and  _235
REMARK  100  A    between atoms: _235  and  _236
REMARK  101  A    between atoms: _239  and  _241
REMARK  102  A    between atoms: _241  and  _242
REMARK  103  A    between atoms: _244  and  _246
REMARK  104  A    between atoms: _246  and  _247
REMARK  105  A    between atoms: _246  and  _249
REMARK  106  A    between atoms: _249  and  _250
REMARK  107  A    between atoms: _250  and  _251
REMARK  108  A    between atoms: _251  and  _252
REMARK  109  A    between atoms: _261  and  _263
REMARK  110  A    between atoms: _263  and  _264
REMARK  111  A    between atoms: _263  and  _266
REMARK  112  A    between atoms: _266  and  _267
REMARK  113  A    between atoms: _272  and  _274
REMARK  114  A    between atoms: _274  and  _275
REMARK  115  A    between atoms: _274  and  _277
REMARK  116  A    between atoms: _277  and  _278
REMARK  117  A    between atoms: _278  and  _279
REMARK  118  A    between atoms: _279  and  _280
REMARK  119  A    between atoms: _289  and  _291
REMARK  120  A    between atoms: _291  and  _292
REMARK  121  A    between atoms: _291  and  _294
REMARK  122  A    between atoms: _294  and  _295
REMARK  123  A    between atoms: _298  and  _300
REMARK  124  A    between atoms: _300  and  _301
REMARK  125  A    between atoms: _300  and  _303
REMARK  126  A    between atoms: _303  and  _304
REMARK  127  A    between atoms: _307  and  _309
REMARK  128  A    between atoms: _309  and  _310
REMARK  129  A    between atoms: _309  and  _312
REMARK  130  A    between atoms: _312  and  _313
REMARK  131  A    between atoms: _316  and  _318
REMARK  132  A    between atoms: _318  and  _319
REMARK  133  A    between atoms: _318  and  _321
REMARK  134  A    between atoms: _321  and  _322
REMARK  135  A    between atoms: _325  and  _327
REMARK  136  A    between atoms: _327  and  _328
REMARK  137  A    between atoms: _330  and  _332
REMARK  138  A    between atoms: _332  and  _333
REMARK  139  A    between atoms: _336  and  _338
REMARK  140  A    between atoms: _338  and  _339
REMARK  141  A    between atoms: _338  and  _341
REMARK  142  A    between atoms: _341  and  _342
REMARK  143  A    between atoms: _345  and  _347
REMARK  144  A    between atoms: _347  and  _348
REMARK  145  A    between atoms: _347  and  _350
REMARK  146  A    between atoms: _350  and  _351
REMARK  147  A    between atoms: _354  and  _356
REMARK  148  A    between atoms: _356  and  _357
REMARK  149  A    between atoms: _356  and  _359
REMARK  150  A    between atoms: _359  and  _360
REMARK  151  A    between atoms: _363  and  _365
REMARK  152  A    between atoms: _365  and  _366
REMARK  153  A    between atoms: _365  and  _368
REMARK  154  A    between atoms: _371  and  _373
REMARK  155  A    between atoms: _373  and  _374
REMARK  156  A    between atoms: _373  and  _376
REMARK  157  A    between atoms: _376  and  _377
REMARK  158  A    between atoms: _377  and  _378
REMARK  159  A    between atoms: _378  and  _379
REMARK  160  A    between atoms: _379  and  _380
REMARK  161  A    between atoms: _384  and  _386
REMARK  162  A    between atoms: _386  and  _387
REMARK  163  A    between atoms: _386  and  _389
REMARK  164  A    between atoms: _389  and  _390
REMARK  165  A    between atoms: _390  and  _391
REMARK  166  A    between atoms: _393  and  _395
REMARK  167  A    between atoms: _395  and  _396
REMARK  168  A    between atoms: _395  and  _398
REMARK  169  A    between atoms: _398  and  _399
REMARK  170  A    between atoms: _402  and  _404
REMARK  171  A    between atoms: _404  and  _405
REMARK  172  A    between atoms: _407  and  _409
REMARK  173  A    between atoms: _409  and  _410
REMARK  174  A    between atoms: _412  and  _414
REMARK  175  A    between atoms: _414  and  _415
REMARK  176  A    between atoms: _414  and  _417
REMARK  177  A    between atoms: _417  and  _418
REMARK  178  A    between atoms: _421  and  _423
REMARK  179  A    between atoms: _423  and  _424
REMARK  180  A    between atoms: _426  and  _428
REMARK  181  A    between atoms: _428  and  _429
REMARK  182  A    between atoms: _431  and  _433
REMARK  183  A    between atoms: _433  and  _434
REMARK  184  A    between atoms: _433  and  _436
REMARK  185  A    between atoms: _436  and  _437
REMARK  186  A    between atoms: _443  and  _445
REMARK  187  A    between atoms: _445  and  _446
REMARK  188  A    between atoms: _445  and  _448
REMARK  189  A    between atoms: _448  and  _449
REMARK  190  A    between atoms: _452  and  _454
REMARK  191  A    between atoms: _454  and  _455
REMARK  192  A    between atoms: _454  and  _457
REMARK  193  A    between atoms: _460  and  _462
REMARK  194  A    between atoms: _462  and  _463
REMARK  195  A    between atoms: _462  and  _465
REMARK  196  A    between atoms: _465  and  _466
REMARK  197  A    between atoms: _469  and  _471
REMARK  198  A    between atoms: _471  and  _472
REMARK  199  A    between atoms: _471  and  _474
REMARK  200  A    between atoms: _474  and  _475
REMARK  201  A    between atoms: _479  and  _480
REMARK  202  A    between atoms: _485  and  _487
REMARK  203  A    between atoms: _487  and  _488
REMARK  204  A    between atoms: _487  and  _490
REMARK  205  A    between atoms: _493  and  _495
REMARK  206  A    between atoms: _495  and  _496
REMARK  207  A    between atoms: _495  and  _498
REMARK  208  A    between atoms: _498  and  _499
REMARK  209  A    between atoms: _504  and  _506
REMARK  210  A    between atoms: _506  and  _507
REMARK  211  A    between atoms: _506  and  _509
REMARK  212  A    between atoms: _509  and  _510
REMARK  213  A    between atoms: _513  and  _515
REMARK  214  A    between atoms: _515  and  _516
REMARK  215  A    between atoms: _515  and  _518
REMARK  216  A    between atoms: _518  and  _519
REMARK  217  A    between atoms: _522  and  _524
REMARK  218  A    between atoms: _524  and  _525
REMARK  219  A    between atoms: _527  and  _529
REMARK  220  A    between atoms: _529  and  _530
REMARK  221  A    between atoms: _529  and  _532
REMARK  222  A    between atoms: _532  and  _533
REMARK  223  A    between atoms: _533  and  _534
REMARK  224  A    between atoms: _534  and  _535
REMARK  225  A    between atoms: _544  and  _546
REMARK  226  A    between atoms: _546  and  _547
REMARK  227  A    between atoms: _546  and  _549
REMARK  228  A    between atoms: _549  and  _550
REMARK                            x       y       z     vdW  Elec       q    Type
REMARK                         _______ _______ _______ _____ _____    ______ ____
ROOT
ATOM      1  O   HOH     1      20.134  32.291  11.848  0.00  0.00    +0.000 OA
ENDROOT
TORSDOF 0
REMARK  Name = ../refined-set-2016/2qi4/2qi4_pocket.pdb
REMARK  228 active torsions:
REMARK  status: ('A' for Active; 'I' for Inactive)
REMARK    1  A    between atoms: _1  and  _3
REMARK    2  A    between atoms: _3  and  _4
REMARK    3  A    between atoms: _3  and  _6
REMARK    4  A    between atoms: _6  and  _7
REMARK    5  A    between atoms: _7  and  _8
REMARK    6  A    between atoms: _8  and  _9
REMARK    7  A    between atoms: _18  and  _20
REMARK    8  A    between atoms: _20  and  _21
REMARK    9  A    between atoms: _20  and  _23
REMARK   10  A    between atoms: _23  and  _24
REMARK   11  A    between atoms: _27  and  _29
REMARK   12  A    between atoms: _29  and  _30
REMARK   13  A    between atoms: _29  and  _32
REMARK   14  A    between atoms: _32  and  _33
REMARK   15  A    between atoms: _36  and  _38
REMARK   16  A    between atoms: _38  and  _39
REMARK   17  A    between atoms: _38  and  _41
REMARK   18  A    between atoms: _41  and  _42
REMARK   19  A    between atoms: _45  and  _47
REMARK   20  A    between atoms: _47  and  _48
REMARK   21  A    between atoms: _47  and  _50
REMARK   22  A    between atoms: _50  and  _51
REMARK   23  A    between atoms: _54  and  _56
REMARK   24  A    between atoms: _56  and  _57
REMARK   25  A    between atoms: _59  and  _61
REMARK   26  A    between atoms: _61  and  _62
REMARK   27  A    between atoms: _65  and  _67
REMARK   28  A    between atoms: _67  and  _68
REMARK   29  A    between atoms: _67  and  _70
REMARK   30  A    between atoms: _70  and  _71
REMARK   31  A    between atoms: _74  and  _76
REMARK   32  A    between atoms: _76  and  _77
REMARK   33  A    between atoms: _76  and  _79
REMARK   34  A    between atoms: _79  and  _80
REMARK   35  A    between atoms: _83  and  _85
REMARK   36  A    between atoms: _85  and  _86
REMARK   37  A    between atoms: _85  and  _88
REMARK   38  A    between atoms: _88  and  _89
REMARK   39  A    between atoms: _92  and  _94
REMARK   40  A    between atoms: _94  and  _95
REMARK   41  A    between atoms: _94  and  _97
REMARK   42  A    between atoms: _100  and  _102
REMARK   43  A    between atoms: _102  and  _103
REMARK   44  A    between atoms: _102  and  _105
REMARK   45  A    between atoms: _105  and  _106
REMARK   46  A    between atoms: _106  and  _107
REMARK   47  A    between atoms: _107  and  _108
REMARK   48  A    between atoms: _108  and  _109
REMARK   49  A    between atoms: _113  and  _115
REMARK   50  A    between atoms: _115  and  _116
REMARK   51  A    between atoms: _115  and  _118
REMARK   52  A    between atoms: _118  and  _119
REMARK   53  A    between atoms: _119  and  _120
REMARK   54  A    between atoms: _122  and  _124
REMARK   55  A    between atoms: _124  and  _125
REMARK   56  A    between atoms: _124  and  _127
REMARK   57  A    between atoms: _127  and  _128
REMARK   58  A    between atoms: _131  and  _133
REMARK   59  A    between atoms: _133  and  _134
REMARK   60  A    between atoms: _136  and  _138
REMARK   61  A    between atoms: _138  and  _139
REMARK   62  A    between atoms: _141  and  _143
REMARK   63  A    between atoms: _143  and  _144
REMARK   64  A    between atoms: _143  and  _146
REMARK   65  A    between atoms: _146  and  _147
REMARK   66  A    between atoms: _150  and  _152
REMARK   67  A    between atoms: _152  and  _153
REMARK   68  A    between atoms: _155  and  _157
REMARK   69  A    between atoms: _157  and  _158
REMARK   70  A    between atoms: _160  and  _162
REMARK   71  A    between atoms: _162  and  _163
REMARK   72  A    between atoms: _162  and  _165
REMARK   73  A    between atoms: _165  and  _166
REMARK   74  A    between atoms: _169  and  _171
REMARK   75  A    between atoms: _171  and  _172
REMARK   76  A    between atoms: _171  and  _174
REMARK   77  A    between atoms: _177  and  _179
REMARK   78  A    between atoms: _179  and  _180
REMARK   79  A    between atoms: _179  and  _182
REMARK   80  A    between atoms: _182  and  _183
REMARK   81  A    between atoms: _186  and  _188
REMARK   82  A    between atoms: _188  and  _189
REMARK   83  A    between atoms: _188  and  _191
REMARK   84  A    between atoms: _191  and  _192
REMARK   85  A    between atoms: _196  and  _197
REMARK   86  A    between atoms: _202  and  _204
REMARK   87  A    between atoms: _204  and  _205
REMARK   88  A    between atoms: _204  and  _207
REMARK   89  A    between atoms: _210  and  _212
REMARK   90  A    between atoms: _212  and  _213
REMARK   91  A    between atoms: _212  and  _215
REMARK   92  A    between atoms: _215  and  _216
REMARK   93  A    between atoms: _221  and  _223
REMARK   94  A    between atoms: _223  and  _224
REMARK   95  A    between atoms: _223  and  _226
REMARK   96  A    between atoms: _226  and  _227
REMARK   97  A    between atoms: _230  and  _232
REMARK   98  A    between atoms: _232  and  _233
REMARK   99  A    between atoms: _232  and  _235
REMARK  100  A    between atoms: _235  and  _236
REMARK  101  A    between atoms: _239  and  _241
REMARK  102  A    between atoms: _241  and  _242
REMARK  103  A    between atoms: _244  and  _246
REMARK  104  A    between atoms: _246  and  _247
REMARK  105  A    between atoms: _246  and  _249
REMARK  106  A    between atoms: _249  and  _250
REMARK  107  A    between atoms: _250  and  _251
REMARK  108  A    between atoms: _251  and  _252
REMARK  109  A    between atoms: _261  and  _263
REMARK  110  A    between atoms: _263  and  _264
REMARK  111  A    between atoms: _263  and  _266
REMARK  112  A    between atoms: _266  and  _267
REMARK  113  A    between atoms: _272  and  _274
REMARK  114  A    between atoms: _274  and  _275
REMARK  115  A    between atoms: _274  and  _277
REMARK  116  A    between atoms: _277  and  _278
REMARK  117  A    between atoms: _278  and  _279
REMARK  118  A    between atoms: _279  and  _280
REMARK  119  A    between atoms: _289  and  _291
REMARK  120  A    between atoms: _291  and  _292
REMARK  121  A    between atoms: _291  and  _294
REMARK  122  A    between atoms: _294  and  _295
REMARK  123  A    between atoms: _298  and  _300
REMARK  124  A    between atoms: _300  and  _301
REMARK  125  A    between atoms: _300  and  _303
REMARK  126  A    between atoms: _303  and  _304
REMARK  127  A    between atoms: _307  and  _309
REMARK  128  A    between atoms: _309  and  _310
REMARK  129  A    between atoms: _309  and  _312
REMARK  130  A    between atoms: _312  and  _313
REMARK  131  A    between atoms: _316  and  _318
REMARK  132  A    between atoms: _318  and  _319
REMARK  133  A    between atoms: _318  and  _321
REMARK  134  A    between atoms: _321  and  _322
REMARK  135  A    between atoms: _325  and  _327
REMARK  136  A    between atoms: _327  and  _328
REMARK  137  A    between atoms: _330  and  _332
REMARK  138  A    between atoms: _332  and  _333
REMARK  139  A    between atoms: _336  and  _338
REMARK  140  A    between atoms: _338  and  _339
REMARK  141  A    between atoms: _338  and  _341
REMARK  142  A    between atoms: _341  and  _342
REMARK  143  A    between atoms: _345  and  _347
REMARK  144  A    between atoms: _347  and  _348
REMARK  145  A    between atoms: _347  and  _350
REMARK  146  A    between atoms: _350  and  _351
REMARK  147  A    between atoms: _354  and  _356
REMARK  148  A    between atoms: _356  and  _357
REMARK  149  A    between atoms: _356  and  _359
REMARK  150  A    between atoms: _359  and  _360
REMARK  151  A    between atoms: _363  and  _365
REMARK  152  A    between atoms: _365  and  _366
REMARK  153  A    between atoms: _365  and  _368
REMARK  154  A    between atoms: _371  and  _373
REMARK  155  A    between atoms: _373  and  _374
REMARK  156  A    between atoms: _373  and  _376
REMARK  157  A    between atoms: _376  and  _377
REMARK  158  A    between atoms: _377  and  _378
REMARK  159  A    between atoms: _378  and  _379
REMARK  160  A    between atoms: _379  and  _380
REMARK  161  A    between atoms: _384  and  _386
REMARK  162  A    between atoms: _386  and  _387
REMARK  163  A    between atoms: _386  and  _389
REMARK  164  A    between atoms: _389  and  _390
REMARK  165  A    between atoms: _390  and  _391
REMARK  166  A    between atoms: _393  and  _395
REMARK  167  A    between atoms: _395  and  _396
REMARK  168  A    between atoms: _395  and  _398
REMARK  169  A    between atoms: _398  and  _399
REMARK  170  A    between atoms: _402  and  _404
REMARK  171  A    between atoms: _404  and  _405
REMARK  172  A    between atoms: _407  and  _409
REMARK  173  A    between atoms: _409  and  _410
REMARK  174  A    between atoms: _412  and  _414
REMARK  175  A    between atoms: _414  and  _415
REMARK  176  A    between atoms: _414  and  _417
REMARK  177  A    between atoms: _417  and  _418
REMARK  178  A    between atoms: _421  and  _423
REMARK  179  A    between atoms: _423  and  _424
REMARK  180  A    between atoms: _426  and  _428
REMARK  181  A    between atoms: _428  and  _429
REMARK  182  A    between atoms: _431  and  _433
REMARK  183  A    between atoms: _433  and  _434
REMARK  184  A    between atoms: _433  and  _436
REMARK  185  A    between atoms: _436  and  _437
REMARK  186  A    between atoms: _443  and  _445
REMARK  187  A    between atoms: _445  and  _446
REMARK  188  A    between atoms: _445  and  _448
REMARK  189  A    between atoms: _448  and  _449
REMARK  190  A    between atoms: _452  and  _454
REMARK  191  A    between atoms: _454  and  _455
REMARK  192  A    between atoms: _454  and  _457
REMARK  193  A    between atoms: _460  and  _462
REMARK  194  A    between atoms: _462  and  _463
REMARK  195  A    between atoms: _462  and  _465
REMARK  196  A    between atoms: _465  and  _466
REMARK  197  A    between atoms: _469  and  _471
REMARK  198  A    between atoms: _471  and  _472
REMARK  199  A    between atoms: _471  and  _474
REMARK  200  A    between atoms: _474  and  _475
REMARK  201  A    between atoms: _479  and  _480
REMARK  202  A    between atoms: _485  and  _487
REMARK  203  A    between atoms: _487  and  _488
REMARK  204  A    between atoms: _487  and  _490
REMARK  205  A    between atoms: _493  and  _495
REMARK  206  A    between atoms: _495  and  _496
REMARK  207  A    between atoms: _495  and  _498
REMARK  208  A    between atoms: _498  and  _499
REMARK  209  A    between atoms: _504  and  _506
REMARK  210  A    between atoms: _506  and  _507
REMARK  211  A    between atoms: _506  and  _509
REMARK  212  A    between atoms: _509  and  _510
REMARK  213  A    between atoms: _513  and  _515
REMARK  214  A    between atoms: _515  and  _516
REMARK  215  A    between atoms: _515  and  _518
REMARK  216  A    between atoms: _518  and  _519
REMARK  217  A    between atoms: _522  and  _524
REMARK  218  A    between atoms: _524  and  _525
REMARK  219  A    between atoms: _527  and  _529
REMARK  220  A    between atoms: _529  and  _530
REMARK  221  A    between atoms: _529  and  _532
REMARK  222  A    between atoms: _532  and  _533
REMARK  223  A    between atoms: _533  and  _534
REMARK  224  A    between atoms: _534  and  _535
REMARK  225  A    between atoms: _544  and  _546
REMARK  226  A    between atoms: _546  and  _547
REMARK  227  A    between atoms: _546  and  _549
REMARK  228  A    between atoms: _549  and  _550
REMARK                            x       y       z     vdW  Elec       q    Type
REMARK                         _______ _______ _______ _____ _____    ______ ____
ROOT
ATOM      1  O   HOH     1      31.304  23.923  12.376  0.00  0.00    +0.000 OA
ENDROOT
TORSDOF 0
REMARK  Name = ../refined-set-2016/2qi4/2qi4_pocket.pdb
REMARK  228 active torsions:
REMARK  status: ('A' for Active; 'I' for Inactive)
REMARK    1  A    between atoms: _1  and  _3
REMARK    2  A    between atoms: _3  and  _4
REMARK    3  A    between atoms: _3  and  _6
REMARK    4  A    between atoms: _6  and  _7
REMARK    5  A    between atoms: _7  and  _8
REMARK    6  A    between atoms: _8  and  _9
REMARK    7  A    between atoms: _18  and  _20
REMARK    8  A    between atoms: _20  and  _21
REMARK    9  A    between atoms: _20  and  _23
REMARK   10  A    between atoms: _23  and  _24
REMARK   11  A    between atoms: _27  and  _29
REMARK   12  A    between atoms: _29  and  _30
REMARK   13  A    between atoms: _29  and  _32
REMARK   14  A    between atoms: _32  and  _33
REMARK   15  A    between atoms: _36  and  _38
REMARK   16  A    between atoms: _38  and  _39
REMARK   17  A    between atoms: _38  and  _41
REMARK   18  A    between atoms: _41  and  _42
REMARK   19  A    between atoms: _45  and  _47
REMARK   20  A    between atoms: _47  and  _48
REMARK   21  A    between atoms: _47  and  _50
REMARK   22  A    between atoms: _50  and  _51
REMARK   23  A    between atoms: _54  and  _56
REMARK   24  A    between atoms: _56  and  _57
REMARK   25  A    between atoms: _59  and  _61
REMARK   26  A    between atoms: _61  and  _62
REMARK   27  A    between atoms: _65  and  _67
REMARK   28  A    between atoms: _67  and  _68
REMARK   29  A    between atoms: _67  and  _70
REMARK   30  A    between atoms: _70  and  _71
REMARK   31  A    between atoms: _74  and  _76
REMARK   32  A    between atoms: _76  and  _77
REMARK   33  A    between atoms: _76  and  _79
REMARK   34  A    between atoms: _79  and  _80
REMARK   35  A    between atoms: _83  and  _85
REMARK   36  A    between atoms: _85  and  _86
REMARK   37  A    between atoms: _85  and  _88
REMARK   38  A    between atoms: _88  and  _89
REMARK   39  A    between atoms: _92  and  _94
REMARK   40  A    between atoms: _94  and  _95
REMARK   41  A    between atoms: _94  and  _97
REMARK   42  A    between atoms: _100  and  _102
REMARK   43  A    between atoms: _102  and  _103
REMARK   44  A    between atoms: _102  and  _105
REMARK   45  A    between atoms: _105  and  _106
REMARK   46  A    between atoms: _106  and  _107
REMARK   47  A    between atoms: _107  and  _108
REMARK   48  A    between atoms: _108  and  _109
REMARK   49  A    between atoms: _113  and  _115
REMARK   50  A    between atoms: _115  and  _116
REMARK   51  A    between atoms: _115  and  _118
REMARK   52  A    between atoms: _118  and  _119
REMARK   53  A    between atoms: _119  and  _120
REMARK   54  A    between atoms: _122  and  _124
REMARK   55  A    between atoms: _124  and  _125
REMARK   56  A    between atoms: _124  and  _127
REMARK   57  A    between atoms: _127  and  _128
REMARK   58  A    between atoms: _131  and  _133
REMARK   59  A    between atoms: _133  and  _134
REMARK   60  A    between atoms: _136  and  _138
REMARK   61  A    between atoms: _138  and  _139
REMARK   62  A    between atoms: _141  and  _143
REMARK   63  A    between atoms: _143  and  _144
REMARK   64  A    between atoms: _143  and  _146
REMARK   65  A    between atoms: _146  and  _147
REMARK   66  A    between atoms: _150  and  _152
REMARK   67  A    between atoms: _152  and  _153
REMARK   68  A    between atoms: _155  and  _157
REMARK   69  A    between atoms: _157  and  _158
REMARK   70  A    between atoms: _160  and  _162
REMARK   71  A    between atoms: _162  and  _163
REMARK   72  A    between atoms: _162  and  _165
REMARK   73  A    between atoms: _165  and  _166
REMARK   74  A    between atoms: _169  and  _171
REMARK   75  A    between atoms: _171  and  _172
REMARK   76  A    between atoms: _171  and  _174
REMARK   77  A    between atoms: _177  and  _179
REMARK   78  A    between atoms: _179  and  _180
REMARK   79  A    between atoms: _179  and  _182
REMARK   80  A    between atoms: _182  and  _183
REMARK   81  A    between atoms: _186  and  _188
REMARK   82  A    between atoms: _188  and  _189
REMARK   83  A    between atoms: _188  and  _191
REMARK   84  A    between atoms: _191  and  _192
REMARK   85  A    between atoms: _196  and  _197
REMARK   86  A    between atoms: _202  and  _204
REMARK   87  A    between atoms: _204  and  _205
REMARK   88  A    between atoms: _204  and  _207
REMARK   89  A    between atoms: _210  and  _212
REMARK   90  A    between atoms: _212  and  _213
REMARK   91  A    between atoms: _212  and  _215
REMARK   92  A    between atoms: _215  and  _216
REMARK   93  A    between atoms: _221  and  _223
REMARK   94  A    between atoms: _223  and  _224
REMARK   95  A    between atoms: _223  and  _226
REMARK   96  A    between atoms: _226  and  _227
REMARK   97  A    between atoms: _230  and  _232
REMARK   98  A    between atoms: _232  and  _233
REMARK   99  A    between atoms: _232  and  _235
REMARK  100  A    between atoms: _235  and  _236
REMARK  101  A    between atoms: _239  and  _241
REMARK  102  A    between atoms: _241  and  _242
REMARK  103  A    between atoms: _244  and  _246
REMARK  104  A    between atoms: _246  and  _247
REMARK  105  A    between atoms: _246  and  _249
REMARK  106  A    between atoms: _249  and  _250
REMARK  107  A    between atoms: _250  and  _251
REMARK  108  A    between atoms: _251  and  _252
REMARK  109  A    between atoms: _261  and  _263
REMARK  110  A    between atoms: _263  and  _264
REMARK  111  A    between atoms: _263  and  _266
REMARK  112  A    between atoms: _266  and  _267
REMARK  113  A    between atoms: _272  and  _274
REMARK  114  A    between atoms: _274  and  _275
REMARK  115  A    between atoms: _274  and  _277
REMARK  116  A    between atoms: _277  and  _278
REMARK  117  A    between atoms: _278  and  _279
REMARK  118  A    between atoms: _279  and  _280
REMARK  119  A    between atoms: _289  and  _291
REMARK  120  A    between atoms: _291  and  _292
REMARK  121  A    between atoms: _291  and  _294
REMARK  122  A    between atoms: _294  and  _295
REMARK  123  A    between atoms: _298  and  _300
REMARK  124  A    between atoms: _300  and  _301
REMARK  125  A    between atoms: _300  and  _303
REMARK  126  A    between atoms: _303  and  _304
REMARK  127  A    between atoms: _307  and  _309
REMARK  128  A    between atoms: _309  and  _310
REMARK  129  A    between atoms: _309  and  _312
REMARK  130  A    between atoms: _312  and  _313
REMARK  131  A    between atoms: _316  and  _318
REMARK  132  A    between atoms: _318  and  _319
REMARK  133  A    between atoms: _318  and  _321
REMARK  134  A    between atoms: _321  and  _322
REMARK  135  A    between atoms: _325  and  _327
REMARK  136  A    between atoms: _327  and  _328
REMARK  137  A    between atoms: _330  and  _332
REMARK  138  A    between atoms: _332  and  _333
REMARK  139  A    between atoms: _336  and  _338
REMARK  140  A    between atoms: _338  and  _339
REMARK  141  A    between atoms: _338  and  _341
REMARK  142  A    between atoms: _341  and  _342
REMARK  143  A    between atoms: _345  and  _347
REMARK  144  A    between atoms: _347  and  _348
REMARK  145  A    between atoms: _347  and  _350
REMARK  146  A    between atoms: _350  and  _351
REMARK  147  A    between atoms: _354  and  _356
REMARK  148  A    between atoms: _356  and  _357
REMARK  149  A    between atoms: _356  and  _359
REMARK  150  A    between atoms: _359  and  _360
REMARK  151  A    between atoms: _363  and  _365
REMARK  152  A    between atoms: _365  and  _366
REMARK  153  A    between atoms: _365  and  _368
REMARK  154  A    between atoms: _371  and  _373
REMARK  155  A    between atoms: _373  and  _374
REMARK  156  A    between atoms: _373  and  _376
REMARK  157  A    between atoms: _376  and  _377
REMARK  158  A    between atoms: _377  and  _378
REMARK  159  A    between atoms: _378  and  _379
REMARK  160  A    between atoms: _379  and  _380
REMARK  161  A    between atoms: _384  and  _386
REMARK  162  A    between atoms: _386  and  _387
REMARK  163  A    between atoms: _386  and  _389
REMARK  164  A    between atoms: _389  and  _390
REMARK  165  A    between atoms: _390  and  _391
REMARK  166  A    between atoms: _393  and  _395
REMARK  167  A    between atoms: _395  and  _396
REMARK  168  A    between atoms: _395  and  _398
REMARK  169  A    between atoms: _398  and  _399
REMARK  170  A    between atoms: _402  and  _404
REMARK  171  A    between atoms: _404  and  _405
REMARK  172  A    between atoms: _407  and  _409
REMARK  173  A    between atoms: _409  and  _410
REMARK  174  A    between atoms: _412  and  _414
REMARK  175  A    between atoms: _414  and  _415
REMARK  176  A    between atoms: _414  and  _417
REMARK  177  A    between atoms: _417  and  _418
REMARK  178  A    between atoms: _421  and  _423
REMARK  179  A    between atoms: _423  and  _424
REMARK  180  A    between atoms: _426  and  _428
REMARK  181  A    between atoms: _428  and  _429
REMARK  182  A    between atoms: _431  and  _433
REMARK  183  A    between atoms: _433  and  _434
REMARK  184  A    between atoms: _433  and  _436
REMARK  185  A    between atoms: _436  and  _437
REMARK  186  A    between atoms: _443  and  _445
REMARK  187  A    between atoms: _445  and  _446
REMARK  188  A    between atoms: _445  and  _448
REMARK  189  A    between atoms: _448  and  _449
REMARK  190  A    between atoms: _452  and  _454
REMARK  191  A    between atoms: _454  and  _455
REMARK  192  A    between atoms: _454  and  _457
REMARK  193  A    between atoms: _460  and  _462
REMARK  194  A    between atoms: _462  and  _463
REMARK  195  A    between atoms: _462  and  _465
REMARK  196  A    between atoms: _465  and  _466
REMARK  197  A    between atoms: _469  and  _471
REMARK  198  A    between atoms: _471  and  _472
REMARK  199  A    between atoms: _471  and  _474
REMARK  200  A    between atoms: _474  and  _475
REMARK  201  A    between atoms: _479  and  _480
REMARK  202  A    between atoms: _485  and  _487
REMARK  203  A    between atoms: _487  and  _488
REMARK  204  A    between atoms: _487  and  _490
REMARK  205  A    between atoms: _493  and  _495
REMARK  206  A    between atoms: _495  and  _496
REMARK  207  A    between atoms: _495  and  _498
REMARK  208  A    between atoms: _498  and  _499
REMARK  209  A    between atoms: _504  and  _506
REMARK  210  A    between atoms: _506  and  _507
REMARK  211  A    between atoms: _506  and  _509
REMARK  212  A    between atoms: _509  and  _510
REMARK  213  A    between atoms: _513  and  _515
REMARK  214  A    between atoms: _515  and  _516
REMARK  215  A    between atoms: _515  and  _518
REMARK  216  A    between atoms: _518  and  _519
REMARK  217  A    between atoms: _522  and  _524
REMARK  218  A    between atoms: _524  and  _525
REMARK  219  A    between atoms: _527  and  _529
REMARK  220  A    between atoms: _529  and  _530
REMARK  221  A    between atoms: _529  and  _532
REMARK  222  A    between atoms: _532  and  _533
REMARK  223  A    between atoms: _533  and  _534
REMARK  224  A    between atoms: _534  and  _535
REMARK  225  A    between atoms: _544  and  _546
REMARK  226  A    between atoms: _546  and  _547
REMARK  227  A    between atoms: _546  and  _549
REMARK  228  A    between atoms: _549  and  _550
REMARK                            x       y       z     vdW  Elec       q    Type
REMARK                         _______ _______ _______ _____ _____    ______ ____
ROOT
ATOM      1  O   HOH     1      23.485  25.571   5.849  0.00  0.00    +0.000 OA
ENDROOT
TORSDOF 0
REMARK  Name = ../refined-set-2016/2qi4/2qi4_pocket.pdb
REMARK  228 active torsions:
REMARK  status: ('A' for Active; 'I' for Inactive)
REMARK    1  A    between atoms: _1  and  _3
REMARK    2  A    between atoms: _3  and  _4
REMARK    3  A    between atoms: _3  and  _6
REMARK    4  A    between atoms: _6  and  _7
REMARK    5  A    between atoms: _7  and  _8
REMARK    6  A    between atoms: _8  and  _9
REMARK    7  A    between atoms: _18  and  _20
REMARK    8  A    between atoms: _20  and  _21
REMARK    9  A    between atoms: _20  and  _23
REMARK   10  A    between atoms: _23  and  _24
REMARK   11  A    between atoms: _27  and  _29
REMARK   12  A    between atoms: _29  and  _30
REMARK   13  A    between atoms: _29  and  _32
REMARK   14  A    between atoms: _32  and  _33
REMARK   15  A    between atoms: _36  and  _38
REMARK   16  A    between atoms: _38  and  _39
REMARK   17  A    between atoms: _38  and  _41
REMARK   18  A    between atoms: _41  and  _42
REMARK   19  A    between atoms: _45  and  _47
REMARK   20  A    between atoms: _47  and  _48
REMARK   21  A    between atoms: _47  and  _50
REMARK   22  A    between atoms: _50  and  _51
REMARK   23  A    between atoms: _54  and  _56
REMARK   24  A    between atoms: _56  and  _57
REMARK   25  A    between atoms: _59  and  _61
REMARK   26  A    between atoms: _61  and  _62
REMARK   27  A    between atoms: _65  and  _67
REMARK   28  A    between atoms: _67  and  _68
REMARK   29  A    between atoms: _67  and  _70
REMARK   30  A    between atoms: _70  and  _71
REMARK   31  A    between atoms: _74  and  _76
REMARK   32  A    between atoms: _76  and  _77
REMARK   33  A    between atoms: _76  and  _79
REMARK   34  A    between atoms: _79  and  _80
REMARK   35  A    between atoms: _83  and  _85
REMARK   36  A    between atoms: _85  and  _86
REMARK   37  A    between atoms: _85  and  _88
REMARK   38  A    between atoms: _88  and  _89
REMARK   39  A    between atoms: _92  and  _94
REMARK   40  A    between atoms: _94  and  _95
REMARK   41  A    between atoms: _94  and  _97
REMARK   42  A    between atoms: _100  and  _102
REMARK   43  A    between atoms: _102  and  _103
REMARK   44  A    between atoms: _102  and  _105
REMARK   45  A    between atoms: _105  and  _106
REMARK   46  A    between atoms: _106  and  _107
REMARK   47  A    between atoms: _107  and  _108
REMARK   48  A    between atoms: _108  and  _109
REMARK   49  A    between atoms: _113  and  _115
REMARK   50  A    between atoms: _115  and  _116
REMARK   51  A    between atoms: _115  and  _118
REMARK   52  A    between atoms: _118  and  _119
REMARK   53  A    between atoms: _119  and  _120
REMARK   54  A    between atoms: _122  and  _124
REMARK   55  A    between atoms: _124  and  _125
REMARK   56  A    between atoms: _124  and  _127
REMARK   57  A    between atoms: _127  and  _128
REMARK   58  A    between atoms: _131  and  _133
REMARK   59  A    between atoms: _133  and  _134
REMARK   60  A    between atoms: _136  and  _138
REMARK   61  A    between atoms: _138  and  _139
REMARK   62  A    between atoms: _141  and  _143
REMARK   63  A    between atoms: _143  and  _144
REMARK   64  A    between atoms: _143  and  _146
REMARK   65  A    between atoms: _146  and  _147
REMARK   66  A    between atoms: _150  and  _152
REMARK   67  A    between atoms: _152  and  _153
REMARK   68  A    between atoms: _155  and  _157
REMARK   69  A    between atoms: _157  and  _158
REMARK   70  A    between atoms: _160  and  _162
REMARK   71  A    between atoms: _162  and  _163
REMARK   72  A    between atoms: _162  and  _165
REMARK   73  A    between atoms: _165  and  _166
REMARK   74  A    between atoms: _169  and  _171
REMARK   75  A    between atoms: _171  and  _172
REMARK   76  A    between atoms: _171  and  _174
REMARK   77  A    between atoms: _177  and  _179
REMARK   78  A    between atoms: _179  and  _180
REMARK   79  A    between atoms: _179  and  _182
REMARK   80  A    between atoms: _182  and  _183
REMARK   81  A    between atoms: _186  and  _188
REMARK   82  A    between atoms: _188  and  _189
REMARK   83  A    between atoms: _188  and  _191
REMARK   84  A    between atoms: _191  and  _192
REMARK   85  A    between atoms: _196  and  _197
REMARK   86  A    between atoms: _202  and  _204
REMARK   87  A    between atoms: _204  and  _205
REMARK   88  A    between atoms: _204  and  _207
REMARK   89  A    between atoms: _210  and  _212
REMARK   90  A    between atoms: _212  and  _213
REMARK   91  A    between atoms: _212  and  _215
REMARK   92  A    between atoms: _215  and  _216
REMARK   93  A    between atoms: _221  and  _223
REMARK   94  A    between atoms: _223  and  _224
REMARK   95  A    between atoms: _223  and  _226
REMARK   96  A    between atoms: _226  and  _227
REMARK   97  A    between atoms: _230  and  _232
REMARK   98  A    between atoms: _232  and  _233
REMARK   99  A    between atoms: _232  and  _235
REMARK  100  A    between atoms: _235  and  _236
REMARK  101  A    between atoms: _239  and  _241
REMARK  102  A    between atoms: _241  and  _242
REMARK  103  A    between atoms: _244  and  _246
REMARK  104  A    between atoms: _246  and  _247
REMARK  105  A    between atoms: _246  and  _249
REMARK  106  A    between atoms: _249  and  _250
REMARK  107  A    between atoms: _250  and  _251
REMARK  108  A    between atoms: _251  and  _252
REMARK  109  A    between atoms: _261  and  _263
REMARK  110  A    between atoms: _263  and  _264
REMARK  111  A    between atoms: _263  and  _266
REMARK  112  A    between atoms: _266  and  _267
REMARK  113  A    between atoms: _272  and  _274
REMARK  114  A    between atoms: _274  and  _275
REMARK  115  A    between atoms: _274  and  _277
REMARK  116  A    between atoms: _277  and  _278
REMARK  117  A    between atoms: _278  and  _279
REMARK  118  A    between atoms: _279  and  _280
REMARK  119  A    between atoms: _289  and  _291
REMARK  120  A    between atoms: _291  and  _292
REMARK  121  A    between atoms: _291  and  _294
REMARK  122  A    between atoms: _294  and  _295
REMARK  123  A    between atoms: _298  and  _300
REMARK  124  A    between atoms: _300  and  _301
REMARK  125  A    between atoms: _300  and  _303
REMARK  126  A    between atoms: _303  and  _304
REMARK  127  A    between atoms: _307  and  _309
REMARK  128  A    between atoms: _309  and  _310
REMARK  129  A    between atoms: _309  and  _312
REMARK  130  A    between atoms: _312  and  _313
REMARK  131  A    between atoms: _316  and  _318
REMARK  132  A    between atoms: _318  and  _319
REMARK  133  A    between atoms: _318  and  _321
REMARK  134  A    between atoms: _321  and  _322
REMARK  135  A    between atoms: _325  and  _327
REMARK  136  A    between atoms: _327  and  _328
REMARK  137  A    between atoms: _330  and  _332
REMARK  138  A    between atoms: _332  and  _333
REMARK  139  A    between atoms: _336  and  _338
REMARK  140  A    between atoms: _338  and  _339
REMARK  141  A    between atoms: _338  and  _341
REMARK  142  A    between atoms: _341  and  _342
REMARK  143  A    between atoms: _345  and  _347
REMARK  144  A    between atoms: _347  and  _348
REMARK  145  A    between atoms: _347  and  _350
REMARK  146  A    between atoms: _350  and  _351
REMARK  147  A    between atoms: _354  and  _356
REMARK  148  A    between atoms: _356  and  _357
REMARK  149  A    between atoms: _356  and  _359
REMARK  150  A    between atoms: _359  and  _360
REMARK  151  A    between atoms: _363  and  _365
REMARK  152  A    between atoms: _365  and  _366
REMARK  153  A    between atoms: _365  and  _368
REMARK  154  A    between atoms: _371  and  _373
REMARK  155  A    between atoms: _373  and  _374
REMARK  156  A    between atoms: _373  and  _376
REMARK  157  A    between atoms: _376  and  _377
REMARK  158  A    between atoms: _377  and  _378
REMARK  159  A    between atoms: _378  and  _379
REMARK  160  A    between atoms: _379  and  _380
REMARK  161  A    between atoms: _384  and  _386
REMARK  162  A    between atoms: _386  and  _387
REMARK  163  A    between atoms: _386  and  _389
REMARK  164  A    between atoms: _389  and  _390
REMARK  165  A    between atoms: _390  and  _391
REMARK  166  A    between atoms: _393  and  _395
REMARK  167  A    between atoms: _395  and  _396
REMARK  168  A    between atoms: _395  and  _398
REMARK  169  A    between atoms: _398  and  _399
REMARK  170  A    between atoms: _402  and  _404
REMARK  171  A    between atoms: _404  and  _405
REMARK  172  A    between atoms: _407  and  _409
REMARK  173  A    between atoms: _409  and  _410
REMARK  174  A    between atoms: _412  and  _414
REMARK  175  A    between atoms: _414  and  _415
REMARK  176  A    between atoms: _414  and  _417
REMARK  177  A    between atoms: _417  and  _418
REMARK  178  A    between atoms: _421  and  _423
REMARK  179  A    between atoms: _423  and  _424
REMARK  180  A    between atoms: _426  and  _428
REMARK  181  A    between atoms: _428  and  _429
REMARK  182  A    between atoms: _431  and  _433
REMARK  183  A    between atoms: _433  and  _434
REMARK  184  A    between atoms: _433  and  _436
REMARK  185  A    between atoms: _436  and  _437
REMARK  186  A    between atoms: _443  and  _445
REMARK  187  A    between atoms: _445  and  _446
REMARK  188  A    between atoms: _445  and  _448
REMARK  189  A    between atoms: _448  and  _449
REMARK  190  A    between atoms: _452  and  _454
REMARK  191  A    between atoms: _454  and  _455
REMARK  192  A    between atoms: _454  and  _457
REMARK  193  A    between atoms: _460  and  _462
REMARK  194  A    between atoms: _462  and  _463
REMARK  195  A    between atoms: _462  and  _465
REMARK  196  A    between atoms: _465  and  _466
REMARK  197  A    between atoms: _469  and  _471
REMARK  198  A    between atoms: _471  and  _472
REMARK  199  A    between atoms: _471  and  _474
REMARK  200  A    between atoms: _474  and  _475
REMARK  201  A    between atoms: _479  and  _480
REMARK  202  A    between atoms: _485  and  _487
REMARK  203  A    between atoms: _487  and  _488
REMARK  204  A    between atoms: _487  and  _490
REMARK  205  A    between atoms: _493  and  _495
REMARK  206  A    between atoms: _495  and  _496
REMARK  207  A    between atoms: _495  and  _498
REMARK  208  A    between atoms: _498  and  _499
REMARK  209  A    between atoms: _504  and  _506
REMARK  210  A    between atoms: _506  and  _507
REMARK  211  A    between atoms: _506  and  _509
REMARK  212  A    between atoms: _509  and  _510
REMARK  213  A    between atoms: _513  and  _515
REMARK  214  A    between atoms: _515  and  _516
REMARK  215  A    between atoms: _515  and  _518
REMARK  216  A    between atoms: _518  and  _519
REMARK  217  A    between atoms: _522  and  _524
REMARK  218  A    between atoms: _524  and  _525
REMARK  219  A    between atoms: _527  and  _529
REMARK  220  A    between atoms: _529  and  _530
REMARK  221  A    between atoms: _529  and  _532
REMARK  222  A    between atoms: _532  and  _533
REMARK  223  A    between atoms: _533  and  _534
REMARK  224  A    between atoms: _534  and  _535
REMARK  225  A    between atoms: _544  and  _546
REMARK  226  A    between atoms: _546  and  _547
REMARK  227  A    between atoms: _546  and  _549
REMARK  228  A    between atoms: _549  and  _550
REMARK                            x       y       z     vdW  Elec       q    Type
REMARK                         _______ _______ _______ _____ _____    ______ ____
ROOT
ATOM      1  O   HOH     1      24.718  40.393  17.124  0.00  0.00    +0.000 OA
ENDROOT
TORSDOF 0
REMARK  Name = ../refined-set-2016/2qi4/2qi4_pocket.pdb
REMARK  228 active torsions:
REMARK  status: ('A' for Active; 'I' for Inactive)
REMARK    1  A    between atoms: _1  and  _3
REMARK    2  A    between atoms: _3  and  _4
REMARK    3  A    between atoms: _3  and  _6
REMARK    4  A    between atoms: _6  and  _7
REMARK    5  A    between atoms: _7  and  _8
REMARK    6  A    between atoms: _8  and  _9
REMARK    7  A    between atoms: _18  and  _20
REMARK    8  A    between atoms: _20  and  _21
REMARK    9  A    between atoms: _20  and  _23
REMARK   10  A    between atoms: _23  and  _24
REMARK   11  A    between atoms: _27  and  _29
REMARK   12  A    between atoms: _29  and  _30
REMARK   13  A    between atoms: _29  and  _32
REMARK   14  A    between atoms: _32  and  _33
REMARK   15  A    between atoms: _36  and  _38
REMARK   16  A    between atoms: _38  and  _39
REMARK   17  A    between atoms: _38  and  _41
REMARK   18  A    between atoms: _41  and  _42
REMARK   19  A    between atoms: _45  and  _47
REMARK   20  A    between atoms: _47  and  _48
REMARK   21  A    between atoms: _47  and  _50
REMARK   22  A    between atoms: _50  and  _51
REMARK   23  A    between atoms: _54  and  _56
REMARK   24  A    between atoms: _56  and  _57
REMARK   25  A    between atoms: _59  and  _61
REMARK   26  A    between atoms: _61  and  _62
REMARK   27  A    between atoms: _65  and  _67
REMARK   28  A    between atoms: _67  and  _68
REMARK   29  A    between atoms: _67  and  _70
REMARK   30  A    between atoms: _70  and  _71
REMARK   31  A    between atoms: _74  and  _76
REMARK   32  A    between atoms: _76  and  _77
REMARK   33  A    between atoms: _76  and  _79
REMARK   34  A    between atoms: _79  and  _80
REMARK   35  A    between atoms: _83  and  _85
REMARK   36  A    between atoms: _85  and  _86
REMARK   37  A    between atoms: _85  and  _88
REMARK   38  A    between atoms: _88  and  _89
REMARK   39  A    between atoms: _92  and  _94
REMARK   40  A    between atoms: _94  and  _95
REMARK   41  A    between atoms: _94  and  _97
REMARK   42  A    between atoms: _100  and  _102
REMARK   43  A    between atoms: _102  and  _103
REMARK   44  A    between atoms: _102  and  _105
REMARK   45  A    between atoms: _105  and  _106
REMARK   46  A    between atoms: _106  and  _107
REMARK   47  A    between atoms: _107  and  _108
REMARK   48  A    between atoms: _108  and  _109
REMARK   49  A    between atoms: _113  and  _115
REMARK   50  A    between atoms: _115  and  _116
REMARK   51  A    between atoms: _115  and  _118
REMARK   52  A    between atoms: _118  and  _119
REMARK   53  A    between atoms: _119  and  _120
REMARK   54  A    between atoms: _122  and  _124
REMARK   55  A    between atoms: _124  and  _125
REMARK   56  A    between atoms: _124  and  _127
REMARK   57  A    between atoms: _127  and  _128
REMARK   58  A    between atoms: _131  and  _133
REMARK   59  A    between atoms: _133  and  _134
REMARK   60  A    between atoms: _136  and  _138
REMARK   61  A    between atoms: _138  and  _139
REMARK   62  A    between atoms: _141  and  _143
REMARK   63  A    between atoms: _143  and  _144
REMARK   64  A    between atoms: _143  and  _146
REMARK   65  A    between atoms: _146  and  _147
REMARK   66  A    between atoms: _150  and  _152
REMARK   67  A    between atoms: _152  and  _153
REMARK   68  A    between atoms: _155  and  _157
REMARK   69  A    between atoms: _157  and  _158
REMARK   70  A    between atoms: _160  and  _162
REMARK   71  A    between atoms: _162  and  _163
REMARK   72  A    between atoms: _162  and  _165
REMARK   73  A    between atoms: _165  and  _166
REMARK   74  A    between atoms: _169  and  _171
REMARK   75  A    between atoms: _171  and  _172
REMARK   76  A    between atoms: _171  and  _174
REMARK   77  A    between atoms: _177  and  _179
REMARK   78  A    between atoms: _179  and  _180
REMARK   79  A    between atoms: _179  and  _182
REMARK   80  A    between atoms: _182  and  _183
REMARK   81  A    between atoms: _186  and  _188
REMARK   82  A    between atoms: _188  and  _189
REMARK   83  A    between atoms: _188  and  _191
REMARK   84  A    between atoms: _191  and  _192
REMARK   85  A    between atoms: _196  and  _197
REMARK   86  A    between atoms: _202  and  _204
REMARK   87  A    between atoms: _204  and  _205
REMARK   88  A    between atoms: _204  and  _207
REMARK   89  A    between atoms: _210  and  _212
REMARK   90  A    between atoms: _212  and  _213
REMARK   91  A    between atoms: _212  and  _215
REMARK   92  A    between atoms: _215  and  _216
REMARK   93  A    between atoms: _221  and  _223
REMARK   94  A    between atoms: _223  and  _224
REMARK   95  A    between atoms: _223  and  _226
REMARK   96  A    between atoms: _226  and  _227
REMARK   97  A    between atoms: _230  and  _232
REMARK   98  A    between atoms: _232  and  _233
REMARK   99  A    between atoms: _232  and  _235
REMARK  100  A    between atoms: _235  and  _236
REMARK  101  A    between atoms: _239  and  _241
REMARK  102  A    between atoms: _241  and  _242
REMARK  103  A    between atoms: _244  and  _246
REMARK  104  A    between atoms: _246  and  _247
REMARK  105  A    between atoms: _246  and  _249
REMARK  106  A    between atoms: _249  and  _250
REMARK  107  A    between atoms: _250  and  _251
REMARK  108  A    between atoms: _251  and  _252
REMARK  109  A    between atoms: _261  and  _263
REMARK  110  A    between atoms: _263  and  _264
REMARK  111  A    between atoms: _263  and  _266
REMARK  112  A    between atoms: _266  and  _267
REMARK  113  A    between atoms: _272  and  _274
REMARK  114  A    between atoms: _274  and  _275
REMARK  115  A    between atoms: _274  and  _277
REMARK  116  A    between atoms: _277  and  _278
REMARK  117  A    between atoms: _278  and  _279
REMARK  118  A    between atoms: _279  and  _280
REMARK  119  A    between atoms: _289  and  _291
REMARK  120  A    between atoms: _291  and  _292
REMARK  121  A    between atoms: _291  and  _294
REMARK  122  A    between atoms: _294  and  _295
REMARK  123  A    between atoms: _298  and  _300
REMARK  124  A    between atoms: _300  and  _301
REMARK  125  A    between atoms: _300  and  _303
REMARK  126  A    between atoms: _303  and  _304
REMARK  127  A    between atoms: _307  and  _309
REMARK  128  A    between atoms: _309  and  _310
REMARK  129  A    between atoms: _309  and  _312
REMARK  130  A    between atoms: _312  and  _313
REMARK  131  A    between atoms: _316  and  _318
REMARK  132  A    between atoms: _318  and  _319
REMARK  133  A    between atoms: _318  and  _321
REMARK  134  A    between atoms: _321  and  _322
REMARK  135  A    between atoms: _325  and  _327
REMARK  136  A    between atoms: _327  and  _328
REMARK  137  A    between atoms: _330  and  _332
REMARK  138  A    between atoms: _332  and  _333
REMARK  139  A    between atoms: _336  and  _338
REMARK  140  A    between atoms: _338  and  _339
REMARK  141  A    between atoms: _338  and  _341
REMARK  142  A    between atoms: _341  and  _342
REMARK  143  A    between atoms: _345  and  _347
REMARK  144  A    between atoms: _347  and  _348
REMARK  145  A    between atoms: _347  and  _350
REMARK  146  A    between atoms: _350  and  _351
REMARK  147  A    between atoms: _354  and  _356
REMARK  148  A    between atoms: _356  and  _357
REMARK  149  A    between atoms: _356  and  _359
REMARK  150  A    between atoms: _359  and  _360
REMARK  151  A    between atoms: _363  and  _365
REMARK  152  A    between atoms: _365  and  _366
REMARK  153  A    between atoms: _365  and  _368
REMARK  154  A    between atoms: _371  and  _373
REMARK  155  A    between atoms: _373  and  _374
REMARK  156  A    between atoms: _373  and  _376
REMARK  157  A    between atoms: _376  and  _377
REMARK  158  A    between atoms: _377  and  _378
REMARK  159  A    between atoms: _378  and  _379
REMARK  160  A    between atoms: _379  and  _380
REMARK  161  A    between atoms: _384  and  _386
REMARK  162  A    between atoms: _386  and  _387
REMARK  163  A    between atoms: _386  and  _389
REMARK  164  A    between atoms: _389  and  _390
REMARK  165  A    between atoms: _390  and  _391
REMARK  166  A    between atoms: _393  and  _395
REMARK  167  A    between atoms: _395  and  _396
REMARK  168  A    between atoms: _395  and  _398
REMARK  169  A    between atoms: _398  and  _399
REMARK  170  A    between atoms: _402  and  _404
REMARK  171  A    between atoms: _404  and  _405
REMARK  172  A    between atoms: _407  and  _409
REMARK  173  A    between atoms: _409  and  _410
REMARK  174  A    between atoms: _412  and  _414
REMARK  175  A    between atoms: _414  and  _415
REMARK  176  A    between atoms: _414  and  _417
REMARK  177  A    between atoms: _417  and  _418
REMARK  178  A    between atoms: _421  and  _423
REMARK  179  A    between atoms: _423  and  _424
REMARK  180  A    between atoms: _426  and  _428
REMARK  181  A    between atoms: _428  and  _429
REMARK  182  A    between atoms: _431  and  _433
REMARK  183  A    between atoms: _433  and  _434
REMARK  184  A    between atoms: _433  and  _436
REMARK  185  A    between atoms: _436  and  _437
REMARK  186  A    between atoms: _443  and  _445
REMARK  187  A    between atoms: _445  and  _446
REMARK  188  A    between atoms: _445  and  _448
REMARK  189  A    between atoms: _448  and  _449
REMARK  190  A    between atoms: _452  and  _454
REMARK  191  A    between atoms: _454  and  _455
REMARK  192  A    between atoms: _454  and  _457
REMARK  193  A    between atoms: _460  and  _462
REMARK  194  A    between atoms: _462  and  _463
REMARK  195  A    between atoms: _462  and  _465
REMARK  196  A    between atoms: _465  and  _466
REMARK  197  A    between atoms: _469  and  _471
REMARK  198  A    between atoms: _471  and  _472
REMARK  199  A    between atoms: _471  and  _474
REMARK  200  A    between atoms: _474  and  _475
REMARK  201  A    between atoms: _479  and  _480
REMARK  202  A    between atoms: _485  and  _487
REMARK  203  A    between atoms: _487  and  _488
REMARK  204  A    between atoms: _487  and  _490
REMARK  205  A    between atoms: _493  and  _495
REMARK  206  A    between atoms: _495  and  _496
REMARK  207  A    between atoms: _495  and  _498
REMARK  208  A    between atoms: _498  and  _499
REMARK  209  A    between atoms: _504  and  _506
REMARK  210  A    between atoms: _506  and  _507
REMARK  211  A    between atoms: _506  and  _509
REMARK  212  A    between atoms: _509  and  _510
REMARK  213  A    between atoms: _513  and  _515
REMARK  214  A    between atoms: _515  and  _516
REMARK  215  A    between atoms: _515  and  _518
REMARK  216  A    between atoms: _518  and  _519
REMARK  217  A    between atoms: _522  and  _524
REMARK  218  A    between atoms: _524  and  _525
REMARK  219  A    between atoms: _527  and  _529
REMARK  220  A    between atoms: _529  and  _530
REMARK  221  A    between atoms: _529  and  _532
REMARK  222  A    between atoms: _532  and  _533
REMARK  223  A    between atoms: _533  and  _534
REMARK  224  A    between atoms: _534  and  _535
REMARK  225  A    between atoms: _544  and  _546
REMARK  226  A    between atoms: _546  and  _547
REMARK  227  A    between atoms: _546  and  _549
REMARK  228  A    between atoms: _549  and  _550
REMARK                            x       y       z     vdW  Elec       q    Type
REMARK                         _______ _______ _______ _____ _____    ______ ____
ROOT
ATOM      1  O   HOH     1      25.266  24.025   7.480  0.00  0.00    +0.000 OA
ENDROOT
TORSDOF 0
REMARK  Name = ../refined-set-2016/2qi4/2qi4_pocket.pdb
REMARK  228 active torsions:
REMARK  status: ('A' for Active; 'I' for Inactive)
REMARK    1  A    between atoms: _1  and  _3
REMARK    2  A    between atoms: _3  and  _4
REMARK    3  A    between atoms: _3  and  _6
REMARK    4  A    between atoms: _6  and  _7
REMARK    5  A    between atoms: _7  and  _8
REMARK    6  A    between atoms: _8  and  _9
REMARK    7  A    between atoms: _18  and  _20
REMARK    8  A    between atoms: _20  and  _21
REMARK    9  A    between atoms: _20  and  _23
REMARK   10  A    between atoms: _23  and  _24
REMARK   11  A    between atoms: _27  and  _29
REMARK   12  A    between atoms: _29  and  _30
REMARK   13  A    between atoms: _29  and  _32
REMARK   14  A    between atoms: _32  and  _33
REMARK   15  A    between atoms: _36  and  _38
REMARK   16  A    between atoms: _38  and  _39
REMARK   17  A    between atoms: _38  and  _41
REMARK   18  A    between atoms: _41  and  _42
REMARK   19  A    between atoms: _45  and  _47
REMARK   20  A    between atoms: _47  and  _48
REMARK   21  A    between atoms: _47  and  _50
REMARK   22  A    between atoms: _50  and  _51
REMARK   23  A    between atoms: _54  and  _56
REMARK   24  A    between atoms: _56  and  _57
REMARK   25  A    between atoms: _59  and  _61
REMARK   26  A    between atoms: _61  and  _62
REMARK   27  A    between atoms: _65  and  _67
REMARK   28  A    between atoms: _67  and  _68
REMARK   29  A    between atoms: _67  and  _70
REMARK   30  A    between atoms: _70  and  _71
REMARK   31  A    between atoms: _74  and  _76
REMARK   32  A    between atoms: _76  and  _77
REMARK   33  A    between atoms: _76  and  _79
REMARK   34  A    between atoms: _79  and  _80
REMARK   35  A    between atoms: _83  and  _85
REMARK   36  A    between atoms: _85  and  _86
REMARK   37  A    between atoms: _85  and  _88
REMARK   38  A    between atoms: _88  and  _89
REMARK   39  A    between atoms: _92  and  _94
REMARK   40  A    between atoms: _94  and  _95
REMARK   41  A    between atoms: _94  and  _97
REMARK   42  A    between atoms: _100  and  _102
REMARK   43  A    between atoms: _102  and  _103
REMARK   44  A    between atoms: _102  and  _105
REMARK   45  A    between atoms: _105  and  _106
REMARK   46  A    between atoms: _106  and  _107
REMARK   47  A    between atoms: _107  and  _108
REMARK   48  A    between atoms: _108  and  _109
REMARK   49  A    between atoms: _113  and  _115
REMARK   50  A    between atoms: _115  and  _116
REMARK   51  A    between atoms: _115  and  _118
REMARK   52  A    between atoms: _118  and  _119
REMARK   53  A    between atoms: _119  and  _120
REMARK   54  A    between atoms: _122  and  _124
REMARK   55  A    between atoms: _124  and  _125
REMARK   56  A    between atoms: _124  and  _127
REMARK   57  A    between atoms: _127  and  _128
REMARK   58  A    between atoms: _131  and  _133
REMARK   59  A    between atoms: _133  and  _134
REMARK   60  A    between atoms: _136  and  _138
REMARK   61  A    between atoms: _138  and  _139
REMARK   62  A    between atoms: _141  and  _143
REMARK   63  A    between atoms: _143  and  _144
REMARK   64  A    between atoms: _143  and  _146
REMARK   65  A    between atoms: _146  and  _147
REMARK   66  A    between atoms: _150  and  _152
REMARK   67  A    between atoms: _152  and  _153
REMARK   68  A    between atoms: _155  and  _157
REMARK   69  A    between atoms: _157  and  _158
REMARK   70  A    between atoms: _160  and  _162
REMARK   71  A    between atoms: _162  and  _163
REMARK   72  A    between atoms: _162  and  _165
REMARK   73  A    between atoms: _165  and  _166
REMARK   74  A    between atoms: _169  and  _171
REMARK   75  A    between atoms: _171  and  _172
REMARK   76  A    between atoms: _171  and  _174
REMARK   77  A    between atoms: _177  and  _179
REMARK   78  A    between atoms: _179  and  _180
REMARK   79  A    between atoms: _179  and  _182
REMARK   80  A    between atoms: _182  and  _183
REMARK   81  A    between atoms: _186  and  _188
REMARK   82  A    between atoms: _188  and  _189
REMARK   83  A    between atoms: _188  and  _191
REMARK   84  A    between atoms: _191  and  _192
REMARK   85  A    between atoms: _196  and  _197
REMARK   86  A    between atoms: _202  and  _204
REMARK   87  A    between atoms: _204  and  _205
REMARK   88  A    between atoms: _204  and  _207
REMARK   89  A    between atoms: _210  and  _212
REMARK   90  A    between atoms: _212  and  _213
REMARK   91  A    between atoms: _212  and  _215
REMARK   92  A    between atoms: _215  and  _216
REMARK   93  A    between atoms: _221  and  _223
REMARK   94  A    between atoms: _223  and  _224
REMARK   95  A    between atoms: _223  and  _226
REMARK   96  A    between atoms: _226  and  _227
REMARK   97  A    between atoms: _230  and  _232
REMARK   98  A    between atoms: _232  and  _233
REMARK   99  A    between atoms: _232  and  _235
REMARK  100  A    between atoms: _235  and  _236
REMARK  101  A    between atoms: _239  and  _241
REMARK  102  A    between atoms: _241  and  _242
REMARK  103  A    between atoms: _244  and  _246
REMARK  104  A    between atoms: _246  and  _247
REMARK  105  A    between atoms: _246  and  _249
REMARK  106  A    between atoms: _249  and  _250
REMARK  107  A    between atoms: _250  and  _251
REMARK  108  A    between atoms: _251  and  _252
REMARK  109  A    between atoms: _261  and  _263
REMARK  110  A    between atoms: _263  and  _264
REMARK  111  A    between atoms: _263  and  _266
REMARK  112  A    between atoms: _266  and  _267
REMARK  113  A    between atoms: _272  and  _274
REMARK  114  A    between atoms: _274  and  _275
REMARK  115  A    between atoms: _274  and  _277
REMARK  116  A    between atoms: _277  and  _278
REMARK  117  A    between atoms: _278  and  _279
REMARK  118  A    between atoms: _279  and  _280
REMARK  119  A    between atoms: _289  and  _291
REMARK  120  A    between atoms: _291  and  _292
REMARK  121  A    between atoms: _291  and  _294
REMARK  122  A    between atoms: _294  and  _295
REMARK  123  A    between atoms: _298  and  _300
REMARK  124  A    between atoms: _300  and  _301
REMARK  125  A    between atoms: _300  and  _303
REMARK  126  A    between atoms: _303  and  _304
REMARK  127  A    between atoms: _307  and  _309
REMARK  128  A    between atoms: _309  and  _310
REMARK  129  A    between atoms: _309  and  _312
REMARK  130  A    between atoms: _312  and  _313
REMARK  131  A    between atoms: _316  and  _318
REMARK  132  A    between atoms: _318  and  _319
REMARK  133  A    between atoms: _318  and  _321
REMARK  134  A    between atoms: _321  and  _322
REMARK  135  A    between atoms: _325  and  _327
REMARK  136  A    between atoms: _327  and  _328
REMARK  137  A    between atoms: _330  and  _332
REMARK  138  A    between atoms: _332  and  _333
REMARK  139  A    between atoms: _336  and  _338
REMARK  140  A    between atoms: _338  and  _339
REMARK  141  A    between atoms: _338  and  _341
REMARK  142  A    between atoms: _341  and  _342
REMARK  143  A    between atoms: _345  and  _347
REMARK  144  A    between atoms: _347  and  _348
REMARK  145  A    between atoms: _347  and  _350
REMARK  146  A    between atoms: _350  and  _351
REMARK  147  A    between atoms: _354  and  _356
REMARK  148  A    between atoms: _356  and  _357
REMARK  149  A    between atoms: _356  and  _359
REMARK  150  A    between atoms: _359  and  _360
REMARK  151  A    between atoms: _363  and  _365
REMARK  152  A    between atoms: _365  and  _366
REMARK  153  A    between atoms: _365  and  _368
REMARK  154  A    between atoms: _371  and  _373
REMARK  155  A    between atoms: _373  and  _374
REMARK  156  A    between atoms: _373  and  _376
REMARK  157  A    between atoms: _376  and  _377
REMARK  158  A    between atoms: _377  and  _378
REMARK  159  A    between atoms: _378  and  _379
REMARK  160  A    between atoms: _379  and  _380
REMARK  161  A    between atoms: _384  and  _386
REMARK  162  A    between atoms: _386  and  _387
REMARK  163  A    between atoms: _386  and  _389
REMARK  164  A    between atoms: _389  and  _390
REMARK  165  A    between atoms: _390  and  _391
REMARK  166  A    between atoms: _393  and  _395
REMARK  167  A    between atoms: _395  and  _396
REMARK  168  A    between atoms: _395  and  _398
REMARK  169  A    between atoms: _398  and  _399
REMARK  170  A    between atoms: _402  and  _404
REMARK  171  A    between atoms: _404  and  _405
REMARK  172  A    between atoms: _407  and  _409
REMARK  173  A    between atoms: _409  and  _410
REMARK  174  A    between atoms: _412  and  _414
REMARK  175  A    between atoms: _414  and  _415
REMARK  176  A    between atoms: _414  and  _417
REMARK  177  A    between atoms: _417  and  _418
REMARK  178  A    between atoms: _421  and  _423
REMARK  179  A    between atoms: _423  and  _424
REMARK  180  A    between atoms: _426  and  _428
REMARK  181  A    between atoms: _428  and  _429
REMARK  182  A    between atoms: _431  and  _433
REMARK  183  A    between atoms: _433  and  _434
REMARK  184  A    between atoms: _433  and  _436
REMARK  185  A    between atoms: _436  and  _437
REMARK  186  A    between atoms: _443  and  _445
REMARK  187  A    between atoms: _445  and  _446
REMARK  188  A    between atoms: _445  and  _448
REMARK  189  A    between atoms: _448  and  _449
REMARK  190  A    between atoms: _452  and  _454
REMARK  191  A    between atoms: _454  and  _455
REMARK  192  A    between atoms: _454  and  _457
REMARK  193  A    between atoms: _460  and  _462
REMARK  194  A    between atoms: _462  and  _463
REMARK  195  A    between atoms: _462  and  _465
REMARK  196  A    between atoms: _465  and  _466
REMARK  197  A    between atoms: _469  and  _471
REMARK  198  A    between atoms: _471  and  _472
REMARK  199  A    between atoms: _471  and  _474
REMARK  200  A    between atoms: _474  and  _475
REMARK  201  A    between atoms: _479  and  _480
REMARK  202  A    between atoms: _485  and  _487
REMARK  203  A    between atoms: _487  and  _488
REMARK  204  A    between atoms: _487  and  _490
REMARK  205  A    between atoms: _493  and  _495
REMARK  206  A    between atoms: _495  and  _496
REMARK  207  A    between atoms: _495  and  _498
REMARK  208  A    between atoms: _498  and  _499
REMARK  209  A    between atoms: _504  and  _506
REMARK  210  A    between atoms: _506  and  _507
REMARK  211  A    between atoms: _506  and  _509
REMARK  212  A    between atoms: _509  and  _510
REMARK  213  A    between atoms: _513  and  _515
REMARK  214  A    between atoms: _515  and  _516
REMARK  215  A    between atoms: _515  and  _518
REMARK  216  A    between atoms: _518  and  _519
REMARK  217  A    between atoms: _522  and  _524
REMARK  218  A    between atoms: _524  and  _525
REMARK  219  A    between atoms: _527  and  _529
REMARK  220  A    between atoms: _529  and  _530
REMARK  221  A    between atoms: _529  and  _532
REMARK  222  A    between atoms: _532  and  _533
REMARK  223  A    between atoms: _533  and  _534
REMARK  224  A    between atoms: _534  and  _535
REMARK  225  A    between atoms: _544  and  _546
REMARK  226  A    between atoms: _546  and  _547
REMARK  227  A    between atoms: _546  and  _549
REMARK  228  A    between atoms: _549  and  _550
REMARK                            x       y       z     vdW  Elec       q    Type
REMARK                         _______ _______ _______ _____ _____    ______ ____
ROOT
ATOM      1  O   HOH     1      26.398  18.991  13.256  0.00  0.00    +0.000 OA
ENDROOT
TORSDOF 0
REMARK  Name = ../refined-set-2016/2qi4/2qi4_pocket.pdb
REMARK  228 active torsions:
REMARK  status: ('A' for Active; 'I' for Inactive)
REMARK    1  A    between atoms: _1  and  _3
REMARK    2  A    between atoms: _3  and  _4
REMARK    3  A    between atoms: _3  and  _6
REMARK    4  A    between atoms: _6  and  _7
REMARK    5  A    between atoms: _7  and  _8
REMARK    6  A    between atoms: _8  and  _9
REMARK    7  A    between atoms: _18  and  _20
REMARK    8  A    between atoms: _20  and  _21
REMARK    9  A    between atoms: _20  and  _23
REMARK   10  A    between atoms: _23  and  _24
REMARK   11  A    between atoms: _27  and  _29
REMARK   12  A    between atoms: _29  and  _30
REMARK   13  A    between atoms: _29  and  _32
REMARK   14  A    between atoms: _32  and  _33
REMARK   15  A    between atoms: _36  and  _38
REMARK   16  A    between atoms: _38  and  _39
REMARK   17  A    between atoms: _38  and  _41
REMARK   18  A    between atoms: _41  and  _42
REMARK   19  A    between atoms: _45  and  _47
REMARK   20  A    between atoms: _47  and  _48
REMARK   21  A    between atoms: _47  and  _50
REMARK   22  A    between atoms: _50  and  _51
REMARK   23  A    between atoms: _54  and  _56
REMARK   24  A    between atoms: _56  and  _57
REMARK   25  A    between atoms: _59  and  _61
REMARK   26  A    between atoms: _61  and  _62
REMARK   27  A    between atoms: _65  and  _67
REMARK   28  A    between atoms: _67  and  _68
REMARK   29  A    between atoms: _67  and  _70
REMARK   30  A    between atoms: _70  and  _71
REMARK   31  A    between atoms: _74  and  _76
REMARK   32  A    between atoms: _76  and  _77
REMARK   33  A    between atoms: _76  and  _79
REMARK   34  A    between atoms: _79  and  _80
REMARK   35  A    between atoms: _83  and  _85
REMARK   36  A    between atoms: _85  and  _86
REMARK   37  A    between atoms: _85  and  _88
REMARK   38  A    between atoms: _88  and  _89
REMARK   39  A    between atoms: _92  and  _94
REMARK   40  A    between atoms: _94  and  _95
REMARK   41  A    between atoms: _94  and  _97
REMARK   42  A    between atoms: _100  and  _102
REMARK   43  A    between atoms: _102  and  _103
REMARK   44  A    between atoms: _102  and  _105
REMARK   45  A    between atoms: _105  and  _106
REMARK   46  A    between atoms: _106  and  _107
REMARK   47  A    between atoms: _107  and  _108
REMARK   48  A    between atoms: _108  and  _109
REMARK   49  A    between atoms: _113  and  _115
REMARK   50  A    between atoms: _115  and  _116
REMARK   51  A    between atoms: _115  and  _118
REMARK   52  A    between atoms: _118  and  _119
REMARK   53  A    between atoms: _119  and  _120
REMARK   54  A    between atoms: _122  and  _124
REMARK   55  A    between atoms: _124  and  _125
REMARK   56  A    between atoms: _124  and  _127
REMARK   57  A    between atoms: _127  and  _128
REMARK   58  A    between atoms: _131  and  _133
REMARK   59  A    between atoms: _133  and  _134
REMARK   60  A    between atoms: _136  and  _138
REMARK   61  A    between atoms: _138  and  _139
REMARK   62  A    between atoms: _141  and  _143
REMARK   63  A    between atoms: _143  and  _144
REMARK   64  A    between atoms: _143  and  _146
REMARK   65  A    between atoms: _146  and  _147
REMARK   66  A    between atoms: _150  and  _152
REMARK   67  A    between atoms: _152  and  _153
REMARK   68  A    between atoms: _155  and  _157
REMARK   69  A    between atoms: _157  and  _158
REMARK   70  A    between atoms: _160  and  _162
REMARK   71  A    between atoms: _162  and  _163
REMARK   72  A    between atoms: _162  and  _165
REMARK   73  A    between atoms: _165  and  _166
REMARK   74  A    between atoms: _169  and  _171
REMARK   75  A    between atoms: _171  and  _172
REMARK   76  A    between atoms: _171  and  _174
REMARK   77  A    between atoms: _177  and  _179
REMARK   78  A    between atoms: _179  and  _180
REMARK   79  A    between atoms: _179  and  _182
REMARK   80  A    between atoms: _182  and  _183
REMARK   81  A    between atoms: _186  and  _188
REMARK   82  A    between atoms: _188  and  _189
REMARK   83  A    between atoms: _188  and  _191
REMARK   84  A    between atoms: _191  and  _192
REMARK   85  A    between atoms: _196  and  _197
REMARK   86  A    between atoms: _202  and  _204
REMARK   87  A    between atoms: _204  and  _205
REMARK   88  A    between atoms: _204  and  _207
REMARK   89  A    between atoms: _210  and  _212
REMARK   90  A    between atoms: _212  and  _213
REMARK   91  A    between atoms: _212  and  _215
REMARK   92  A    between atoms: _215  and  _216
REMARK   93  A    between atoms: _221  and  _223
REMARK   94  A    between atoms: _223  and  _224
REMARK   95  A    between atoms: _223  and  _226
REMARK   96  A    between atoms: _226  and  _227
REMARK   97  A    between atoms: _230  and  _232
REMARK   98  A    between atoms: _232  and  _233
REMARK   99  A    between atoms: _232  and  _235
REMARK  100  A    between atoms: _235  and  _236
REMARK  101  A    between atoms: _239  and  _241
REMARK  102  A    between atoms: _241  and  _242
REMARK  103  A    between atoms: _244  and  _246
REMARK  104  A    between atoms: _246  and  _247
REMARK  105  A    between atoms: _246  and  _249
REMARK  106  A    between atoms: _249  and  _250
REMARK  107  A    between atoms: _250  and  _251
REMARK  108  A    between atoms: _251  and  _252
REMARK  109  A    between atoms: _261  and  _263
REMARK  110  A    between atoms: _263  and  _264
REMARK  111  A    between atoms: _263  and  _266
REMARK  112  A    between atoms: _266  and  _267
REMARK  113  A    between atoms: _272  and  _274
REMARK  114  A    between atoms: _274  and  _275
REMARK  115  A    between atoms: _274  and  _277
REMARK  116  A    between atoms: _277  and  _278
REMARK  117  A    between atoms: _278  and  _279
REMARK  118  A    between atoms: _279  and  _280
REMARK  119  A    between atoms: _289  and  _291
REMARK  120  A    between atoms: _291  and  _292
REMARK  121  A    between atoms: _291  and  _294
REMARK  122  A    between atoms: _294  and  _295
REMARK  123  A    between atoms: _298  and  _300
REMARK  124  A    between atoms: _300  and  _301
REMARK  125  A    between atoms: _300  and  _303
REMARK  126  A    between atoms: _303  and  _304
REMARK  127  A    between atoms: _307  and  _309
REMARK  128  A    between atoms: _309  and  _310
REMARK  129  A    between atoms: _309  and  _312
REMARK  130  A    between atoms: _312  and  _313
REMARK  131  A    between atoms: _316  and  _318
REMARK  132  A    between atoms: _318  and  _319
REMARK  133  A    between atoms: _318  and  _321
REMARK  134  A    between atoms: _321  and  _322
REMARK  135  A    between atoms: _325  and  _327
REMARK  136  A    between atoms: _327  and  _328
REMARK  137  A    between atoms: _330  and  _332
REMARK  138  A    between atoms: _332  and  _333
REMARK  139  A    between atoms: _336  and  _338
REMARK  140  A    between atoms: _338  and  _339
REMARK  141  A    between atoms: _338  and  _341
REMARK  142  A    between atoms: _341  and  _342
REMARK  143  A    between atoms: _345  and  _347
REMARK  144  A    between atoms: _347  and  _348
REMARK  145  A    between atoms: _347  and  _350
REMARK  146  A    between atoms: _350  and  _351
REMARK  147  A    between atoms: _354  and  _356
REMARK  148  A    between atoms: _356  and  _357
REMARK  149  A    between atoms: _356  and  _359
REMARK  150  A    between atoms: _359  and  _360
REMARK  151  A    between atoms: _363  and  _365
REMARK  152  A    between atoms: _365  and  _366
REMARK  153  A    between atoms: _365  and  _368
REMARK  154  A    between atoms: _371  and  _373
REMARK  155  A    between atoms: _373  and  _374
REMARK  156  A    between atoms: _373  and  _376
REMARK  157  A    between atoms: _376  and  _377
REMARK  158  A    between atoms: _377  and  _378
REMARK  159  A    between atoms: _378  and  _379
REMARK  160  A    between atoms: _379  and  _380
REMARK  161  A    between atoms: _384  and  _386
REMARK  162  A    between atoms: _386  and  _387
REMARK  163  A    between atoms: _386  and  _389
REMARK  164  A    between atoms: _389  and  _390
REMARK  165  A    between atoms: _390  and  _391
REMARK  166  A    between atoms: _393  and  _395
REMARK  167  A    between atoms: _395  and  _396
REMARK  168  A    between atoms: _395  and  _398
REMARK  169  A    between atoms: _398  and  _399
REMARK  170  A    between atoms: _402  and  _404
REMARK  171  A    between atoms: _404  and  _405
REMARK  172  A    between atoms: _407  and  _409
REMARK  173  A    between atoms: _409  and  _410
REMARK  174  A    between atoms: _412  and  _414
REMARK  175  A    between atoms: _414  and  _415
REMARK  176  A    between atoms: _414  and  _417
REMARK  177  A    between atoms: _417  and  _418
REMARK  178  A    between atoms: _421  and  _423
REMARK  179  A    between atoms: _423  and  _424
REMARK  180  A    between atoms: _426  and  _428
REMARK  181  A    between atoms: _428  and  _429
REMARK  182  A    between atoms: _431  and  _433
REMARK  183  A    between atoms: _433  and  _434
REMARK  184  A    between atoms: _433  and  _436
REMARK  185  A    between atoms: _436  and  _437
REMARK  186  A    between atoms: _443  and  _445
REMARK  187  A    between atoms: _445  and  _446
REMARK  188  A    between atoms: _445  and  _448
REMARK  189  A    between atoms: _448  and  _449
REMARK  190  A    between atoms: _452  and  _454
REMARK  191  A    between atoms: _454  and  _455
REMARK  192  A    between atoms: _454  and  _457
REMARK  193  A    between atoms: _460  and  _462
REMARK  194  A    between atoms: _462  and  _463
REMARK  195  A    between atoms: _462  and  _465
REMARK  196  A    between atoms: _465  and  _466
REMARK  197  A    between atoms: _469  and  _471
REMARK  198  A    between atoms: _471  and  _472
REMARK  199  A    between atoms: _471  and  _474
REMARK  200  A    between atoms: _474  and  _475
REMARK  201  A    between atoms: _479  and  _480
REMARK  202  A    between atoms: _485  and  _487
REMARK  203  A    between atoms: _487  and  _488
REMARK  204  A    between atoms: _487  and  _490
REMARK  205  A    between atoms: _493  and  _495
REMARK  206  A    between atoms: _495  and  _496
REMARK  207  A    between atoms: _495  and  _498
REMARK  208  A    between atoms: _498  and  _499
REMARK  209  A    between atoms: _504  and  _506
REMARK  210  A    between atoms: _506  and  _507
REMARK  211  A    between atoms: _506  and  _509
REMARK  212  A    between atoms: _509  and  _510
REMARK  213  A    between atoms: _513  and  _515
REMARK  214  A    between atoms: _515  and  _516
REMARK  215  A    between atoms: _515  and  _518
REMARK  216  A    between atoms: _518  and  _519
REMARK  217  A    between atoms: _522  and  _524
REMARK  218  A    between atoms: _524  and  _525
REMARK  219  A    between atoms: _527  and  _529
REMARK  220  A    between atoms: _529  and  _530
REMARK  221  A    between atoms: _529  and  _532
REMARK  222  A    between atoms: _532  and  _533
REMARK  223  A    between atoms: _533  and  _534
REMARK  224  A    between atoms: _534  and  _535
REMARK  225  A    between atoms: _544  and  _546
REMARK  226  A    between atoms: _546  and  _547
REMARK  227  A    between atoms: _546  and  _549
REMARK  228  A    between atoms: _549  and  _550
REMARK                            x       y       z     vdW  Elec       q    Type
REMARK                         _______ _______ _______ _____ _____    ______ ____
ROOT
ATOM      1  O   HOH     1      23.912  21.752   8.034  0.00  0.00    +0.000 OA
ENDROOT
TORSDOF 0
REMARK  Name = ../refined-set-2016/2qi4/2qi4_pocket.pdb
REMARK  228 active torsions:
REMARK  status: ('A' for Active; 'I' for Inactive)
REMARK    1  A    between atoms: _1  and  _3
REMARK    2  A    between atoms: _3  and  _4
REMARK    3  A    between atoms: _3  and  _6
REMARK    4  A    between atoms: _6  and  _7
REMARK    5  A    between atoms: _7  and  _8
REMARK    6  A    between atoms: _8  and  _9
REMARK    7  A    between atoms: _18  and  _20
REMARK    8  A    between atoms: _20  and  _21
REMARK    9  A    between atoms: _20  and  _23
REMARK   10  A    between atoms: _23  and  _24
REMARK   11  A    between atoms: _27  and  _29
REMARK   12  A    between atoms: _29  and  _30
REMARK   13  A    between atoms: _29  and  _32
REMARK   14  A    between atoms: _32  and  _33
REMARK   15  A    between atoms: _36  and  _38
REMARK   16  A    between atoms: _38  and  _39
REMARK   17  A    between atoms: _38  and  _41
REMARK   18  A    between atoms: _41  and  _42
REMARK   19  A    between atoms: _45  and  _47
REMARK   20  A    between atoms: _47  and  _48
REMARK   21  A    between atoms: _47  and  _50
REMARK   22  A    between atoms: _50  and  _51
REMARK   23  A    between atoms: _54  and  _56
REMARK   24  A    between atoms: _56  and  _57
REMARK   25  A    between atoms: _59  and  _61
REMARK   26  A    between atoms: _61  and  _62
REMARK   27  A    between atoms: _65  and  _67
REMARK   28  A    between atoms: _67  and  _68
REMARK   29  A    between atoms: _67  and  _70
REMARK   30  A    between atoms: _70  and  _71
REMARK   31  A    between atoms: _74  and  _76
REMARK   32  A    between atoms: _76  and  _77
REMARK   33  A    between atoms: _76  and  _79
REMARK   34  A    between atoms: _79  and  _80
REMARK   35  A    between atoms: _83  and  _85
REMARK   36  A    between atoms: _85  and  _86
REMARK   37  A    between atoms: _85  and  _88
REMARK   38  A    between atoms: _88  and  _89
REMARK   39  A    between atoms: _92  and  _94
REMARK   40  A    between atoms: _94  and  _95
REMARK   41  A    between atoms: _94  and  _97
REMARK   42  A    between atoms: _100  and  _102
REMARK   43  A    between atoms: _102  and  _103
REMARK   44  A    between atoms: _102  and  _105
REMARK   45  A    between atoms: _105  and  _106
REMARK   46  A    between atoms: _106  and  _107
REMARK   47  A    between atoms: _107  and  _108
REMARK   48  A    between atoms: _108  and  _109
REMARK   49  A    between atoms: _113  and  _115
REMARK   50  A    between atoms: _115  and  _116
REMARK   51  A    between atoms: _115  and  _118
REMARK   52  A    between atoms: _118  and  _119
REMARK   53  A    between atoms: _119  and  _120
REMARK   54  A    between atoms: _122  and  _124
REMARK   55  A    between atoms: _124  and  _125
REMARK   56  A    between atoms: _124  and  _127
REMARK   57  A    between atoms: _127  and  _128
REMARK   58  A    between atoms: _131  and  _133
REMARK   59  A    between atoms: _133  and  _134
REMARK   60  A    between atoms: _136  and  _138
REMARK   61  A    between atoms: _138  and  _139
REMARK   62  A    between atoms: _141  and  _143
REMARK   63  A    between atoms: _143  and  _144
REMARK   64  A    between atoms: _143  and  _146
REMARK   65  A    between atoms: _146  and  _147
REMARK   66  A    between atoms: _150  and  _152
REMARK   67  A    between atoms: _152  and  _153
REMARK   68  A    between atoms: _155  and  _157
REMARK   69  A    between atoms: _157  and  _158
REMARK   70  A    between atoms: _160  and  _162
REMARK   71  A    between atoms: _162  and  _163
REMARK   72  A    between atoms: _162  and  _165
REMARK   73  A    between atoms: _165  and  _166
REMARK   74  A    between atoms: _169  and  _171
REMARK   75  A    between atoms: _171  and  _172
REMARK   76  A    between atoms: _171  and  _174
REMARK   77  A    between atoms: _177  and  _179
REMARK   78  A    between atoms: _179  and  _180
REMARK   79  A    between atoms: _179  and  _182
REMARK   80  A    between atoms: _182  and  _183
REMARK   81  A    between atoms: _186  and  _188
REMARK   82  A    between atoms: _188  and  _189
REMARK   83  A    between atoms: _188  and  _191
REMARK   84  A    between atoms: _191  and  _192
REMARK   85  A    between atoms: _196  and  _197
REMARK   86  A    between atoms: _202  and  _204
REMARK   87  A    between atoms: _204  and  _205
REMARK   88  A    between atoms: _204  and  _207
REMARK   89  A    between atoms: _210  and  _212
REMARK   90  A    between atoms: _212  and  _213
REMARK   91  A    between atoms: _212  and  _215
REMARK   92  A    between atoms: _215  and  _216
REMARK   93  A    between atoms: _221  and  _223
REMARK   94  A    between atoms: _223  and  _224
REMARK   95  A    between atoms: _223  and  _226
REMARK   96  A    between atoms: _226  and  _227
REMARK   97  A    between atoms: _230  and  _232
REMARK   98  A    between atoms: _232  and  _233
REMARK   99  A    between atoms: _232  and  _235
REMARK  100  A    between atoms: _235  and  _236
REMARK  101  A    between atoms: _239  and  _241
REMARK  102  A    between atoms: _241  and  _242
REMARK  103  A    between atoms: _244  and  _246
REMARK  104  A    between atoms: _246  and  _247
REMARK  105  A    between atoms: _246  and  _249
REMARK  106  A    between atoms: _249  and  _250
REMARK  107  A    between atoms: _250  and  _251
REMARK  108  A    between atoms: _251  and  _252
REMARK  109  A    between atoms: _261  and  _263
REMARK  110  A    between atoms: _263  and  _264
REMARK  111  A    between atoms: _263  and  _266
REMARK  112  A    between atoms: _266  and  _267
REMARK  113  A    between atoms: _272  and  _274
REMARK  114  A    between atoms: _274  and  _275
REMARK  115  A    between atoms: _274  and  _277
REMARK  116  A    between atoms: _277  and  _278
REMARK  117  A    between atoms: _278  and  _279
REMARK  118  A    between atoms: _279  and  _280
REMARK  119  A    between atoms: _289  and  _291
REMARK  120  A    between atoms: _291  and  _292
REMARK  121  A    between atoms: _291  and  _294
REMARK  122  A    between atoms: _294  and  _295
REMARK  123  A    between atoms: _298  and  _300
REMARK  124  A    between atoms: _300  and  _301
REMARK  125  A    between atoms: _300  and  _303
REMARK  126  A    between atoms: _303  and  _304
REMARK  127  A    between atoms: _307  and  _309
REMARK  128  A    between atoms: _309  and  _310
REMARK  129  A    between atoms: _309  and  _312
REMARK  130  A    between atoms: _312  and  _313
REMARK  131  A    between atoms: _316  and  _318
REMARK  132  A    between atoms: _318  and  _319
REMARK  133  A    between atoms: _318  and  _321
REMARK  134  A    between atoms: _321  and  _322
REMARK  135  A    between atoms: _325  and  _327
REMARK  136  A    between atoms: _327  and  _328
REMARK  137  A    between atoms: _330  and  _332
REMARK  138  A    between atoms: _332  and  _333
REMARK  139  A    between atoms: _336  and  _338
REMARK  140  A    between atoms: _338  and  _339
REMARK  141  A    between atoms: _338  and  _341
REMARK  142  A    between atoms: _341  and  _342
REMARK  143  A    between atoms: _345  and  _347
REMARK  144  A    between atoms: _347  and  _348
REMARK  145  A    between atoms: _347  and  _350
REMARK  146  A    between atoms: _350  and  _351
REMARK  147  A    between atoms: _354  and  _356
REMARK  148  A    between atoms: _356  and  _357
REMARK  149  A    between atoms: _356  and  _359
REMARK  150  A    between atoms: _359  and  _360
REMARK  151  A    between atoms: _363  and  _365
REMARK  152  A    between atoms: _365  and  _366
REMARK  153  A    between atoms: _365  and  _368
REMARK  154  A    between atoms: _371  and  _373
REMARK  155  A    between atoms: _373  and  _374
REMARK  156  A    between atoms: _373  and  _376
REMARK  157  A    between atoms: _376  and  _377
REMARK  158  A    between atoms: _377  and  _378
REMARK  159  A    between atoms: _378  and  _379
REMARK  160  A    between atoms: _379  and  _380
REMARK  161  A    between atoms: _384  and  _386
REMARK  162  A    between atoms: _386  and  _387
REMARK  163  A    between atoms: _386  and  _389
REMARK  164  A    between atoms: _389  and  _390
REMARK  165  A    between atoms: _390  and  _391
REMARK  166  A    between atoms: _393  and  _395
REMARK  167  A    between atoms: _395  and  _396
REMARK  168  A    between atoms: _395  and  _398
REMARK  169  A    between atoms: _398  and  _399
REMARK  170  A    between atoms: _402  and  _404
REMARK  171  A    between atoms: _404  and  _405
REMARK  172  A    between atoms: _407  and  _409
REMARK  173  A    between atoms: _409  and  _410
REMARK  174  A    between atoms: _412  and  _414
REMARK  175  A    between atoms: _414  and  _415
REMARK  176  A    between atoms: _414  and  _417
REMARK  177  A    between atoms: _417  and  _418
REMARK  178  A    between atoms: _421  and  _423
REMARK  179  A    between atoms: _423  and  _424
REMARK  180  A    between atoms: _426  and  _428
REMARK  181  A    between atoms: _428  and  _429
REMARK  182  A    between atoms: _431  and  _433
REMARK  183  A    between atoms: _433  and  _434
REMARK  184  A    between atoms: _433  and  _436
REMARK  185  A    between atoms: _436  and  _437
REMARK  186  A    between atoms: _443  and  _445
REMARK  187  A    between atoms: _445  and  _446
REMARK  188  A    between atoms: _445  and  _448
REMARK  189  A    between atoms: _448  and  _449
REMARK  190  A    between atoms: _452  and  _454
REMARK  191  A    between atoms: _454  and  _455
REMARK  192  A    between atoms: _454  and  _457
REMARK  193  A    between atoms: _460  and  _462
REMARK  194  A    between atoms: _462  and  _463
REMARK  195  A    between atoms: _462  and  _465
REMARK  196  A    between atoms: _465  and  _466
REMARK  197  A    between atoms: _469  and  _471
REMARK  198  A    between atoms: _471  and  _472
REMARK  199  A    between atoms: _471  and  _474
REMARK  200  A    between atoms: _474  and  _475
REMARK  201  A    between atoms: _479  and  _480
REMARK  202  A    between atoms: _485  and  _487
REMARK  203  A    between atoms: _487  and  _488
REMARK  204  A    between atoms: _487  and  _490
REMARK  205  A    between atoms: _493  and  _495
REMARK  206  A    between atoms: _495  and  _496
REMARK  207  A    between atoms: _495  and  _498
REMARK  208  A    between atoms: _498  and  _499
REMARK  209  A    between atoms: _504  and  _506
REMARK  210  A    between atoms: _506  and  _507
REMARK  211  A    between atoms: _506  and  _509
REMARK  212  A    between atoms: _509  and  _510
REMARK  213  A    between atoms: _513  and  _515
REMARK  214  A    between atoms: _515  and  _516
REMARK  215  A    between atoms: _515  and  _518
REMARK  216  A    between atoms: _518  and  _519
REMARK  217  A    between atoms: _522  and  _524
REMARK  218  A    between atoms: _524  and  _525
REMARK  219  A    between atoms: _527  and  _529
REMARK  220  A    between atoms: _529  and  _530
REMARK  221  A    between atoms: _529  and  _532
REMARK  222  A    between atoms: _532  and  _533
REMARK  223  A    between atoms: _533  and  _534
REMARK  224  A    between atoms: _534  and  _535
REMARK  225  A    between atoms: _544  and  _546
REMARK  226  A    between atoms: _546  and  _547
REMARK  227  A    between atoms: _546  and  _549
REMARK  228  A    between atoms: _549  and  _550
REMARK                            x       y       z     vdW  Elec       q    Type
REMARK                         _______ _______ _______ _____ _____    ______ ____
ROOT
ATOM      1  O   HOH     1      18.695  29.249   5.552  0.00  0.00    +0.000 OA
ENDROOT
TORSDOF 0
REMARK  Name = ../refined-set-2016/2qi4/2qi4_pocket.pdb
REMARK  228 active torsions:
REMARK  status: ('A' for Active; 'I' for Inactive)
REMARK    1  A    between atoms: _1  and  _3
REMARK    2  A    between atoms: _3  and  _4
REMARK    3  A    between atoms: _3  and  _6
REMARK    4  A    between atoms: _6  and  _7
REMARK    5  A    between atoms: _7  and  _8
REMARK    6  A    between atoms: _8  and  _9
REMARK    7  A    between atoms: _18  and  _20
REMARK    8  A    between atoms: _20  and  _21
REMARK    9  A    between atoms: _20  and  _23
REMARK   10  A    between atoms: _23  and  _24
REMARK   11  A    between atoms: _27  and  _29
REMARK   12  A    between atoms: _29  and  _30
REMARK   13  A    between atoms: _29  and  _32
REMARK   14  A    between atoms: _32  and  _33
REMARK   15  A    between atoms: _36  and  _38
REMARK   16  A    between atoms: _38  and  _39
REMARK   17  A    between atoms: _38  and  _41
REMARK   18  A    between atoms: _41  and  _42
REMARK   19  A    between atoms: _45  and  _47
REMARK   20  A    between atoms: _47  and  _48
REMARK   21  A    between atoms: _47  and  _50
REMARK   22  A    between atoms: _50  and  _51
REMARK   23  A    between atoms: _54  and  _56
REMARK   24  A    between atoms: _56  and  _57
REMARK   25  A    between atoms: _59  and  _61
REMARK   26  A    between atoms: _61  and  _62
REMARK   27  A    between atoms: _65  and  _67
REMARK   28  A    between atoms: _67  and  _68
REMARK   29  A    between atoms: _67  and  _70
REMARK   30  A    between atoms: _70  and  _71
REMARK   31  A    between atoms: _74  and  _76
REMARK   32  A    between atoms: _76  and  _77
REMARK   33  A    between atoms: _76  and  _79
REMARK   34  A    between atoms: _79  and  _80
REMARK   35  A    between atoms: _83  and  _85
REMARK   36  A    between atoms: _85  and  _86
REMARK   37  A    between atoms: _85  and  _88
REMARK   38  A    between atoms: _88  and  _89
REMARK   39  A    between atoms: _92  and  _94
REMARK   40  A    between atoms: _94  and  _95
REMARK   41  A    between atoms: _94  and  _97
REMARK   42  A    between atoms: _100  and  _102
REMARK   43  A    between atoms: _102  and  _103
REMARK   44  A    between atoms: _102  and  _105
REMARK   45  A    between atoms: _105  and  _106
REMARK   46  A    between atoms: _106  and  _107
REMARK   47  A    between atoms: _107  and  _108
REMARK   48  A    between atoms: _108  and  _109
REMARK   49  A    between atoms: _113  and  _115
REMARK   50  A    between atoms: _115  and  _116
REMARK   51  A    between atoms: _115  and  _118
REMARK   52  A    between atoms: _118  and  _119
REMARK   53  A    between atoms: _119  and  _120
REMARK   54  A    between atoms: _122  and  _124
REMARK   55  A    between atoms: _124  and  _125
REMARK   56  A    between atoms: _124  and  _127
REMARK   57  A    between atoms: _127  and  _128
REMARK   58  A    between atoms: _131  and  _133
REMARK   59  A    between atoms: _133  and  _134
REMARK   60  A    between atoms: _136  and  _138
REMARK   61  A    between atoms: _138  and  _139
REMARK   62  A    between atoms: _141  and  _143
REMARK   63  A    between atoms: _143  and  _144
REMARK   64  A    between atoms: _143  and  _146
REMARK   65  A    between atoms: _146  and  _147
REMARK   66  A    between atoms: _150  and  _152
REMARK   67  A    between atoms: _152  and  _153
REMARK   68  A    between atoms: _155  and  _157
REMARK   69  A    between atoms: _157  and  _158
REMARK   70  A    between atoms: _160  and  _162
REMARK   71  A    between atoms: _162  and  _163
REMARK   72  A    between atoms: _162  and  _165
REMARK   73  A    between atoms: _165  and  _166
REMARK   74  A    between atoms: _169  and  _171
REMARK   75  A    between atoms: _171  and  _172
REMARK   76  A    between atoms: _171  and  _174
REMARK   77  A    between atoms: _177  and  _179
REMARK   78  A    between atoms: _179  and  _180
REMARK   79  A    between atoms: _179  and  _182
REMARK   80  A    between atoms: _182  and  _183
REMARK   81  A    between atoms: _186  and  _188
REMARK   82  A    between atoms: _188  and  _189
REMARK   83  A    between atoms: _188  and  _191
REMARK   84  A    between atoms: _191  and  _192
REMARK   85  A    between atoms: _196  and  _197
REMARK   86  A    between atoms: _202  and  _204
REMARK   87  A    between atoms: _204  and  _205
REMARK   88  A    between atoms: _204  and  _207
REMARK   89  A    between atoms: _210  and  _212
REMARK   90  A    between atoms: _212  and  _213
REMARK   91  A    between atoms: _212  and  _215
REMARK   92  A    between atoms: _215  and  _216
REMARK   93  A    between atoms: _221  and  _223
REMARK   94  A    between atoms: _223  and  _224
REMARK   95  A    between atoms: _223  and  _226
REMARK   96  A    between atoms: _226  and  _227
REMARK   97  A    between atoms: _230  and  _232
REMARK   98  A    between atoms: _232  and  _233
REMARK   99  A    between atoms: _232  and  _235
REMARK  100  A    between atoms: _235  and  _236
REMARK  101  A    between atoms: _239  and  _241
REMARK  102  A    between atoms: _241  and  _242
REMARK  103  A    between atoms: _244  and  _246
REMARK  104  A    between atoms: _246  and  _247
REMARK  105  A    between atoms: _246  and  _249
REMARK  106  A    between atoms: _249  and  _250
REMARK  107  A    between atoms: _250  and  _251
REMARK  108  A    between atoms: _251  and  _252
REMARK  109  A    between atoms: _261  and  _263
REMARK  110  A    between atoms: _263  and  _264
REMARK  111  A    between atoms: _263  and  _266
REMARK  112  A    between atoms: _266  and  _267
REMARK  113  A    between atoms: _272  and  _274
REMARK  114  A    between atoms: _274  and  _275
REMARK  115  A    between atoms: _274  and  _277
REMARK  116  A    between atoms: _277  and  _278
REMARK  117  A    between atoms: _278  and  _279
REMARK  118  A    between atoms: _279  and  _280
REMARK  119  A    between atoms: _289  and  _291
REMARK  120  A    between atoms: _291  and  _292
REMARK  121  A    between atoms: _291  and  _294
REMARK  122  A    between atoms: _294  and  _295
REMARK  123  A    between atoms: _298  and  _300
REMARK  124  A    between atoms: _300  and  _301
REMARK  125  A    between atoms: _300  and  _303
REMARK  126  A    between atoms: _303  and  _304
REMARK  127  A    between atoms: _307  and  _309
REMARK  128  A    between atoms: _309  and  _310
REMARK  129  A    between atoms: _309  and  _312
REMARK  130  A    between atoms: _312  and  _313
REMARK  131  A    between atoms: _316  and  _318
REMARK  132  A    between atoms: _318  and  _319
REMARK  133  A    between atoms: _318  and  _321
REMARK  134  A    between atoms: _321  and  _322
REMARK  135  A    between atoms: _325  and  _327
REMARK  136  A    between atoms: _327  and  _328
REMARK  137  A    between atoms: _330  and  _332
REMARK  138  A    between atoms: _332  and  _333
REMARK  139  A    between atoms: _336  and  _338
REMARK  140  A    between atoms: _338  and  _339
REMARK  141  A    between atoms: _338  and  _341
REMARK  142  A    between atoms: _341  and  _342
REMARK  143  A    between atoms: _345  and  _347
REMARK  144  A    between atoms: _347  and  _348
REMARK  145  A    between atoms: _347  and  _350
REMARK  146  A    between atoms: _350  and  _351
REMARK  147  A    between atoms: _354  and  _356
REMARK  148  A    between atoms: _356  and  _357
REMARK  149  A    between atoms: _356  and  _359
REMARK  150  A    between atoms: _359  and  _360
REMARK  151  A    between atoms: _363  and  _365
REMARK  152  A    between atoms: _365  and  _366
REMARK  153  A    between atoms: _365  and  _368
REMARK  154  A    between atoms: _371  and  _373
REMARK  155  A    between atoms: _373  and  _374
REMARK  156  A    between atoms: _373  and  _376
REMARK  157  A    between atoms: _376  and  _377
REMARK  158  A    between atoms: _377  and  _378
REMARK  159  A    between atoms: _378  and  _379
REMARK  160  A    between atoms: _379  and  _380
REMARK  161  A    between atoms: _384  and  _386
REMARK  162  A    between atoms: _386  and  _387
REMARK  163  A    between atoms: _386  and  _389
REMARK  164  A    between atoms: _389  and  _390
REMARK  165  A    between atoms: _390  and  _391
REMARK  166  A    between atoms: _393  and  _395
REMARK  167  A    between atoms: _395  and  _396
REMARK  168  A    between atoms: _395  and  _398
REMARK  169  A    between atoms: _398  and  _399
REMARK  170  A    between atoms: _402  and  _404
REMARK  171  A    between atoms: _404  and  _405
REMARK  172  A    between atoms: _407  and  _409
REMARK  173  A    between atoms: _409  and  _410
REMARK  174  A    between atoms: _412  and  _414
REMARK  175  A    between atoms: _414  and  _415
REMARK  176  A    between atoms: _414  and  _417
REMARK  177  A    between atoms: _417  and  _418
REMARK  178  A    between atoms: _421  and  _423
REMARK  179  A    between atoms: _423  and  _424
REMARK  180  A    between atoms: _426  and  _428
REMARK  181  A    between atoms: _428  and  _429
REMARK  182  A    between atoms: _431  and  _433
REMARK  183  A    between atoms: _433  and  _434
REMARK  184  A    between atoms: _433  and  _436
REMARK  185  A    between atoms: _436  and  _437
REMARK  186  A    between atoms: _443  and  _445
REMARK  187  A    between atoms: _445  and  _446
REMARK  188  A    between atoms: _445  and  _448
REMARK  189  A    between atoms: _448  and  _449
REMARK  190  A    between atoms: _452  and  _454
REMARK  191  A    between atoms: _454  and  _455
REMARK  192  A    between atoms: _454  and  _457
REMARK  193  A    between atoms: _460  and  _462
REMARK  194  A    between atoms: _462  and  _463
REMARK  195  A    between atoms: _462  and  _465
REMARK  196  A    between atoms: _465  and  _466
REMARK  197  A    between atoms: _469  and  _471
REMARK  198  A    between atoms: _471  and  _472
REMARK  199  A    between atoms: _471  and  _474
REMARK  200  A    between atoms: _474  and  _475
REMARK  201  A    between atoms: _479  and  _480
REMARK  202  A    between atoms: _485  and  _487
REMARK  203  A    between atoms: _487  and  _488
REMARK  204  A    between atoms: _487  and  _490
REMARK  205  A    between atoms: _493  and  _495
REMARK  206  A    between atoms: _495  and  _496
REMARK  207  A    between atoms: _495  and  _498
REMARK  208  A    between atoms: _498  and  _499
REMARK  209  A    between atoms: _504  and  _506
REMARK  210  A    between atoms: _506  and  _507
REMARK  211  A    between atoms: _506  and  _509
REMARK  212  A    between atoms: _509  and  _510
REMARK  213  A    between atoms: _513  and  _515
REMARK  214  A    between atoms: _515  and  _516
REMARK  215  A    between atoms: _515  and  _518
REMARK  216  A    between atoms: _518  and  _519
REMARK  217  A    between atoms: _522  and  _524
REMARK  218  A    between atoms: _524  and  _525
REMARK  219  A    between atoms: _527  and  _529
REMARK  220  A    between atoms: _529  and  _530
REMARK  221  A    between atoms: _529  and  _532
REMARK  222  A    between atoms: _532  and  _533
REMARK  223  A    between atoms: _533  and  _534
REMARK  224  A    between atoms: _534  and  _535
REMARK  225  A    between atoms: _544  and  _546
REMARK  226  A    between atoms: _546  and  _547
REMARK  227  A    between atoms: _546  and  _549
REMARK  228  A    between atoms: _549  and  _550
REMARK                            x       y       z     vdW  Elec       q    Type
REMARK                         _______ _______ _______ _____ _____    ______ ____
ROOT
ATOM      1  O   HOH     1      30.385  21.975  10.769  0.00  0.00    +0.000 OA
ENDROOT
TORSDOF 0
REMARK  Name = ../refined-set-2016/2qi4/2qi4_pocket.pdb
REMARK  228 active torsions:
REMARK  status: ('A' for Active; 'I' for Inactive)
REMARK    1  A    between atoms: _1  and  _3
REMARK    2  A    between atoms: _3  and  _4
REMARK    3  A    between atoms: _3  and  _6
REMARK    4  A    between atoms: _6  and  _7
REMARK    5  A    between atoms: _7  and  _8
REMARK    6  A    between atoms: _8  and  _9
REMARK    7  A    between atoms: _18  and  _20
REMARK    8  A    between atoms: _20  and  _21
REMARK    9  A    between atoms: _20  and  _23
REMARK   10  A    between atoms: _23  and  _24
REMARK   11  A    between atoms: _27  and  _29
REMARK   12  A    between atoms: _29  and  _30
REMARK   13  A    between atoms: _29  and  _32
REMARK   14  A    between atoms: _32  and  _33
REMARK   15  A    between atoms: _36  and  _38
REMARK   16  A    between atoms: _38  and  _39
REMARK   17  A    between atoms: _38  and  _41
REMARK   18  A    between atoms: _41  and  _42
REMARK   19  A    between atoms: _45  and  _47
REMARK   20  A    between atoms: _47  and  _48
REMARK   21  A    between atoms: _47  and  _50
REMARK   22  A    between atoms: _50  and  _51
REMARK   23  A    between atoms: _54  and  _56
REMARK   24  A    between atoms: _56  and  _57
REMARK   25  A    between atoms: _59  and  _61
REMARK   26  A    between atoms: _61  and  _62
REMARK   27  A    between atoms: _65  and  _67
REMARK   28  A    between atoms: _67  and  _68
REMARK   29  A    between atoms: _67  and  _70
REMARK   30  A    between atoms: _70  and  _71
REMARK   31  A    between atoms: _74  and  _76
REMARK   32  A    between atoms: _76  and  _77
REMARK   33  A    between atoms: _76  and  _79
REMARK   34  A    between atoms: _79  and  _80
REMARK   35  A    between atoms: _83  and  _85
REMARK   36  A    between atoms: _85  and  _86
REMARK   37  A    between atoms: _85  and  _88
REMARK   38  A    between atoms: _88  and  _89
REMARK   39  A    between atoms: _92  and  _94
REMARK   40  A    between atoms: _94  and  _95
REMARK   41  A    between atoms: _94  and  _97
REMARK   42  A    between atoms: _100  and  _102
REMARK   43  A    between atoms: _102  and  _103
REMARK   44  A    between atoms: _102  and  _105
REMARK   45  A    between atoms: _105  and  _106
REMARK   46  A    between atoms: _106  and  _107
REMARK   47  A    between atoms: _107  and  _108
REMARK   48  A    between atoms: _108  and  _109
REMARK   49  A    between atoms: _113  and  _115
REMARK   50  A    between atoms: _115  and  _116
REMARK   51  A    between atoms: _115  and  _118
REMARK   52  A    between atoms: _118  and  _119
REMARK   53  A    between atoms: _119  and  _120
REMARK   54  A    between atoms: _122  and  _124
REMARK   55  A    between atoms: _124  and  _125
REMARK   56  A    between atoms: _124  and  _127
REMARK   57  A    between atoms: _127  and  _128
REMARK   58  A    between atoms: _131  and  _133
REMARK   59  A    between atoms: _133  and  _134
REMARK   60  A    between atoms: _136  and  _138
REMARK   61  A    between atoms: _138  and  _139
REMARK   62  A    between atoms: _141  and  _143
REMARK   63  A    between atoms: _143  and  _144
REMARK   64  A    between atoms: _143  and  _146
REMARK   65  A    between atoms: _146  and  _147
REMARK   66  A    between atoms: _150  and  _152
REMARK   67  A    between atoms: _152  and  _153
REMARK   68  A    between atoms: _155  and  _157
REMARK   69  A    between atoms: _157  and  _158
REMARK   70  A    between atoms: _160  and  _162
REMARK   71  A    between atoms: _162  and  _163
REMARK   72  A    between atoms: _162  and  _165
REMARK   73  A    between atoms: _165  and  _166
REMARK   74  A    between atoms: _169  and  _171
REMARK   75  A    between atoms: _171  and  _172
REMARK   76  A    between atoms: _171  and  _174
REMARK   77  A    between atoms: _177  and  _179
REMARK   78  A    between atoms: _179  and  _180
REMARK   79  A    between atoms: _179  and  _182
REMARK   80  A    between atoms: _182  and  _183
REMARK   81  A    between atoms: _186  and  _188
REMARK   82  A    between atoms: _188  and  _189
REMARK   83  A    between atoms: _188  and  _191
REMARK   84  A    between atoms: _191  and  _192
REMARK   85  A    between atoms: _196  and  _197
REMARK   86  A    between atoms: _202  and  _204
REMARK   87  A    between atoms: _204  and  _205
REMARK   88  A    between atoms: _204  and  _207
REMARK   89  A    between atoms: _210  and  _212
REMARK   90  A    between atoms: _212  and  _213
REMARK   91  A    between atoms: _212  and  _215
REMARK   92  A    between atoms: _215  and  _216
REMARK   93  A    between atoms: _221  and  _223
REMARK   94  A    between atoms: _223  and  _224
REMARK   95  A    between atoms: _223  and  _226
REMARK   96  A    between atoms: _226  and  _227
REMARK   97  A    between atoms: _230  and  _232
REMARK   98  A    between atoms: _232  and  _233
REMARK   99  A    between atoms: _232  and  _235
REMARK  100  A    between atoms: _235  and  _236
REMARK  101  A    between atoms: _239  and  _241
REMARK  102  A    between atoms: _241  and  _242
REMARK  103  A    between atoms: _244  and  _246
REMARK  104  A    between atoms: _246  and  _247
REMARK  105  A    between atoms: _246  and  _249
REMARK  106  A    between atoms: _249  and  _250
REMARK  107  A    between atoms: _250  and  _251
REMARK  108  A    between atoms: _251  and  _252
REMARK  109  A    between atoms: _261  and  _263
REMARK  110  A    between atoms: _263  and  _264
REMARK  111  A    between atoms: _263  and  _266
REMARK  112  A    between atoms: _266  and  _267
REMARK  113  A    between atoms: _272  and  _274
REMARK  114  A    between atoms: _274  and  _275
REMARK  115  A    between atoms: _274  and  _277
REMARK  116  A    between atoms: _277  and  _278
REMARK  117  A    between atoms: _278  and  _279
REMARK  118  A    between atoms: _279  and  _280
REMARK  119  A    between atoms: _289  and  _291
REMARK  120  A    between atoms: _291  and  _292
REMARK  121  A    between atoms: _291  and  _294
REMARK  122  A    between atoms: _294  and  _295
REMARK  123  A    between atoms: _298  and  _300
REMARK  124  A    between atoms: _300  and  _301
REMARK  125  A    between atoms: _300  and  _303
REMARK  126  A    between atoms: _303  and  _304
REMARK  127  A    between atoms: _307  and  _309
REMARK  128  A    between atoms: _309  and  _310
REMARK  129  A    between atoms: _309  and  _312
REMARK  130  A    between atoms: _312  and  _313
REMARK  131  A    between atoms: _316  and  _318
REMARK  132  A    between atoms: _318  and  _319
REMARK  133  A    between atoms: _318  and  _321
REMARK  134  A    between atoms: _321  and  _322
REMARK  135  A    between atoms: _325  and  _327
REMARK  136  A    between atoms: _327  and  _328
REMARK  137  A    between atoms: _330  and  _332
REMARK  138  A    between atoms: _332  and  _333
REMARK  139  A    between atoms: _336  and  _338
REMARK  140  A    between atoms: _338  and  _339
REMARK  141  A    between atoms: _338  and  _341
REMARK  142  A    between atoms: _341  and  _342
REMARK  143  A    between atoms: _345  and  _347
REMARK  144  A    between atoms: _347  and  _348
REMARK  145  A    between atoms: _347  and  _350
REMARK  146  A    between atoms: _350  and  _351
REMARK  147  A    between atoms: _354  and  _356
REMARK  148  A    between atoms: _356  and  _357
REMARK  149  A    between atoms: _356  and  _359
REMARK  150  A    between atoms: _359  and  _360
REMARK  151  A    between atoms: _363  and  _365
REMARK  152  A    between atoms: _365  and  _366
REMARK  153  A    between atoms: _365  and  _368
REMARK  154  A    between atoms: _371  and  _373
REMARK  155  A    between atoms: _373  and  _374
REMARK  156  A    between atoms: _373  and  _376
REMARK  157  A    between atoms: _376  and  _377
REMARK  158  A    between atoms: _377  and  _378
REMARK  159  A    between atoms: _378  and  _379
REMARK  160  A    between atoms: _379  and  _380
REMARK  161  A    between atoms: _384  and  _386
REMARK  162  A    between atoms: _386  and  _387
REMARK  163  A    between atoms: _386  and  _389
REMARK  164  A    between atoms: _389  and  _390
REMARK  165  A    between atoms: _390  and  _391
REMARK  166  A    between atoms: _393  and  _395
REMARK  167  A    between atoms: _395  and  _396
REMARK  168  A    between atoms: _395  and  _398
REMARK  169  A    between atoms: _398  and  _399
REMARK  170  A    between atoms: _402  and  _404
REMARK  171  A    between atoms: _404  and  _405
REMARK  172  A    between atoms: _407  and  _409
REMARK  173  A    between atoms: _409  and  _410
REMARK  174  A    between atoms: _412  and  _414
REMARK  175  A    between atoms: _414  and  _415
REMARK  176  A    between atoms: _414  and  _417
REMARK  177  A    between atoms: _417  and  _418
REMARK  178  A    between atoms: _421  and  _423
REMARK  179  A    between atoms: _423  and  _424
REMARK  180  A    between atoms: _426  and  _428
REMARK  181  A    between atoms: _428  and  _429
REMARK  182  A    between atoms: _431  and  _433
REMARK  183  A    between atoms: _433  and  _434
REMARK  184  A    between atoms: _433  and  _436
REMARK  185  A    between atoms: _436  and  _437
REMARK  186  A    between atoms: _443  and  _445
REMARK  187  A    between atoms: _445  and  _446
REMARK  188  A    between atoms: _445  and  _448
REMARK  189  A    between atoms: _448  and  _449
REMARK  190  A    between atoms: _452  and  _454
REMARK  191  A    between atoms: _454  and  _455
REMARK  192  A    between atoms: _454  and  _457
REMARK  193  A    between atoms: _460  and  _462
REMARK  194  A    between atoms: _462  and  _463
REMARK  195  A    between atoms: _462  and  _465
REMARK  196  A    between atoms: _465  and  _466
REMARK  197  A    between atoms: _469  and  _471
REMARK  198  A    between atoms: _471  and  _472
REMARK  199  A    between atoms: _471  and  _474
REMARK  200  A    between atoms: _474  and  _475
REMARK  201  A    between atoms: _479  and  _480
REMARK  202  A    between atoms: _485  and  _487
REMARK  203  A    between atoms: _487  and  _488
REMARK  204  A    between atoms: _487  and  _490
REMARK  205  A    between atoms: _493  and  _495
REMARK  206  A    between atoms: _495  and  _496
REMARK  207  A    between atoms: _495  and  _498
REMARK  208  A    between atoms: _498  and  _499
REMARK  209  A    between atoms: _504  and  _506
REMARK  210  A    between atoms: _506  and  _507
REMARK  211  A    between atoms: _506  and  _509
REMARK  212  A    between atoms: _509  and  _510
REMARK  213  A    between atoms: _513  and  _515
REMARK  214  A    between atoms: _515  and  _516
REMARK  215  A    between atoms: _515  and  _518
REMARK  216  A    between atoms: _518  and  _519
REMARK  217  A    between atoms: _522  and  _524
REMARK  218  A    between atoms: _524  and  _525
REMARK  219  A    between atoms: _527  and  _529
REMARK  220  A    between atoms: _529  and  _530
REMARK  221  A    between atoms: _529  and  _532
REMARK  222  A    between atoms: _532  and  _533
REMARK  223  A    between atoms: _533  and  _534
REMARK  224  A    between atoms: _534  and  _535
REMARK  225  A    between atoms: _544  and  _546
REMARK  226  A    between atoms: _546  and  _547
REMARK  227  A    between atoms: _546  and  _549
REMARK  228  A    between atoms: _549  and  _550
REMARK                            x       y       z     vdW  Elec       q    Type
REMARK                         _______ _______ _______ _____ _____    ______ ____
ROOT
ATOM      1  O   HOH     1      21.094  25.647   7.447  0.00  0.00    +0.000 OA
ENDROOT
TORSDOF 0
REMARK  Name = ../refined-set-2016/2qi4/2qi4_pocket.pdb
REMARK  228 active torsions:
REMARK  status: ('A' for Active; 'I' for Inactive)
REMARK    1  A    between atoms: _1  and  _3
REMARK    2  A    between atoms: _3  and  _4
REMARK    3  A    between atoms: _3  and  _6
REMARK    4  A    between atoms: _6  and  _7
REMARK    5  A    between atoms: _7  and  _8
REMARK    6  A    between atoms: _8  and  _9
REMARK    7  A    between atoms: _18  and  _20
REMARK    8  A    between atoms: _20  and  _21
REMARK    9  A    between atoms: _20  and  _23
REMARK   10  A    between atoms: _23  and  _24
REMARK   11  A    between atoms: _27  and  _29
REMARK   12  A    between atoms: _29  and  _30
REMARK   13  A    between atoms: _29  and  _32
REMARK   14  A    between atoms: _32  and  _33
REMARK   15  A    between atoms: _36  and  _38
REMARK   16  A    between atoms: _38  and  _39
REMARK   17  A    between atoms: _38  and  _41
REMARK   18  A    between atoms: _41  and  _42
REMARK   19  A    between atoms: _45  and  _47
REMARK   20  A    between atoms: _47  and  _48
REMARK   21  A    between atoms: _47  and  _50
REMARK   22  A    between atoms: _50  and  _51
REMARK   23  A    between atoms: _54  and  _56
REMARK   24  A    between atoms: _56  and  _57
REMARK   25  A    between atoms: _59  and  _61
REMARK   26  A    between atoms: _61  and  _62
REMARK   27  A    between atoms: _65  and  _67
REMARK   28  A    between atoms: _67  and  _68
REMARK   29  A    between atoms: _67  and  _70
REMARK   30  A    between atoms: _70  and  _71
REMARK   31  A    between atoms: _74  and  _76
REMARK   32  A    between atoms: _76  and  _77
REMARK   33  A    between atoms: _76  and  _79
REMARK   34  A    between atoms: _79  and  _80
REMARK   35  A    between atoms: _83  and  _85
REMARK   36  A    between atoms: _85  and  _86
REMARK   37  A    between atoms: _85  and  _88
REMARK   38  A    between atoms: _88  and  _89
REMARK   39  A    between atoms: _92  and  _94
REMARK   40  A    between atoms: _94  and  _95
REMARK   41  A    between atoms: _94  and  _97
REMARK   42  A    between atoms: _100  and  _102
REMARK   43  A    between atoms: _102  and  _103
REMARK   44  A    between atoms: _102  and  _105
REMARK   45  A    between atoms: _105  and  _106
REMARK   46  A    between atoms: _106  and  _107
REMARK   47  A    between atoms: _107  and  _108
REMARK   48  A    between atoms: _108  and  _109
REMARK   49  A    between atoms: _113  and  _115
REMARK   50  A    between atoms: _115  and  _116
REMARK   51  A    between atoms: _115  and  _118
REMARK   52  A    between atoms: _118  and  _119
REMARK   53  A    between atoms: _119  and  _120
REMARK   54  A    between atoms: _122  and  _124
REMARK   55  A    between atoms: _124  and  _125
REMARK   56  A    between atoms: _124  and  _127
REMARK   57  A    between atoms: _127  and  _128
REMARK   58  A    between atoms: _131  and  _133
REMARK   59  A    between atoms: _133  and  _134
REMARK   60  A    between atoms: _136  and  _138
REMARK   61  A    between atoms: _138  and  _139
REMARK   62  A    between atoms: _141  and  _143
REMARK   63  A    between atoms: _143  and  _144
REMARK   64  A    between atoms: _143  and  _146
REMARK   65  A    between atoms: _146  and  _147
REMARK   66  A    between atoms: _150  and  _152
REMARK   67  A    between atoms: _152  and  _153
REMARK   68  A    between atoms: _155  and  _157
REMARK   69  A    between atoms: _157  and  _158
REMARK   70  A    between atoms: _160  and  _162
REMARK   71  A    between atoms: _162  and  _163
REMARK   72  A    between atoms: _162  and  _165
REMARK   73  A    between atoms: _165  and  _166
REMARK   74  A    between atoms: _169  and  _171
REMARK   75  A    between atoms: _171  and  _172
REMARK   76  A    between atoms: _171  and  _174
REMARK   77  A    between atoms: _177  and  _179
REMARK   78  A    between atoms: _179  and  _180
REMARK   79  A    between atoms: _179  and  _182
REMARK   80  A    between atoms: _182  and  _183
REMARK   81  A    between atoms: _186  and  _188
REMARK   82  A    between atoms: _188  and  _189
REMARK   83  A    between atoms: _188  and  _191
REMARK   84  A    between atoms: _191  and  _192
REMARK   85  A    between atoms: _196  and  _197
REMARK   86  A    between atoms: _202  and  _204
REMARK   87  A    between atoms: _204  and  _205
REMARK   88  A    between atoms: _204  and  _207
REMARK   89  A    between atoms: _210  and  _212
REMARK   90  A    between atoms: _212  and  _213
REMARK   91  A    between atoms: _212  and  _215
REMARK   92  A    between atoms: _215  and  _216
REMARK   93  A    between atoms: _221  and  _223
REMARK   94  A    between atoms: _223  and  _224
REMARK   95  A    between atoms: _223  and  _226
REMARK   96  A    between atoms: _226  and  _227
REMARK   97  A    between atoms: _230  and  _232
REMARK   98  A    between atoms: _232  and  _233
REMARK   99  A    between atoms: _232  and  _235
REMARK  100  A    between atoms: _235  and  _236
REMARK  101  A    between atoms: _239  and  _241
REMARK  102  A    between atoms: _241  and  _242
REMARK  103  A    between atoms: _244  and  _246
REMARK  104  A    between atoms: _246  and  _247
REMARK  105  A    between atoms: _246  and  _249
REMARK  106  A    between atoms: _249  and  _250
REMARK  107  A    between atoms: _250  and  _251
REMARK  108  A    between atoms: _251  and  _252
REMARK  109  A    between atoms: _261  and  _263
REMARK  110  A    between atoms: _263  and  _264
REMARK  111  A    between atoms: _263  and  _266
REMARK  112  A    between atoms: _266  and  _267
REMARK  113  A    between atoms: _272  and  _274
REMARK  114  A    between atoms: _274  and  _275
REMARK  115  A    between atoms: _274  and  _277
REMARK  116  A    between atoms: _277  and  _278
REMARK  117  A    between atoms: _278  and  _279
REMARK  118  A    between atoms: _279  and  _280
REMARK  119  A    between atoms: _289  and  _291
REMARK  120  A    between atoms: _291  and  _292
REMARK  121  A    between atoms: _291  and  _294
REMARK  122  A    between atoms: _294  and  _295
REMARK  123  A    between atoms: _298  and  _300
REMARK  124  A    between atoms: _300  and  _301
REMARK  125  A    between atoms: _300  and  _303
REMARK  126  A    between atoms: _303  and  _304
REMARK  127  A    between atoms: _307  and  _309
REMARK  128  A    between atoms: _309  and  _310
REMARK  129  A    between atoms: _309  and  _312
REMARK  130  A    between atoms: _312  and  _313
REMARK  131  A    between atoms: _316  and  _318
REMARK  132  A    between atoms: _318  and  _319
REMARK  133  A    between atoms: _318  and  _321
REMARK  134  A    between atoms: _321  and  _322
REMARK  135  A    between atoms: _325  and  _327
REMARK  136  A    between atoms: _327  and  _328
REMARK  137  A    between atoms: _330  and  _332
REMARK  138  A    between atoms: _332  and  _333
REMARK  139  A    between atoms: _336  and  _338
REMARK  140  A    between atoms: _338  and  _339
REMARK  141  A    between atoms: _338  and  _341
REMARK  142  A    between atoms: _341  and  _342
REMARK  143  A    between atoms: _345  and  _347
REMARK  144  A    between atoms: _347  and  _348
REMARK  145  A    between atoms: _347  and  _350
REMARK  146  A    between atoms: _350  and  _351
REMARK  147  A    between atoms: _354  and  _356
REMARK  148  A    between atoms: _356  and  _357
REMARK  149  A    between atoms: _356  and  _359
REMARK  150  A    between atoms: _359  and  _360
REMARK  151  A    between atoms: _363  and  _365
REMARK  152  A    between atoms: _365  and  _366
REMARK  153  A    between atoms: _365  and  _368
REMARK  154  A    between atoms: _371  and  _373
REMARK  155  A    between atoms: _373  and  _374
REMARK  156  A    between atoms: _373  and  _376
REMARK  157  A    between atoms: _376  and  _377
REMARK  158  A    between atoms: _377  and  _378
REMARK  159  A    between atoms: _378  and  _379
REMARK  160  A    between atoms: _379  and  _380
REMARK  161  A    between atoms: _384  and  _386
REMARK  162  A    between atoms: _386  and  _387
REMARK  163  A    between atoms: _386  and  _389
REMARK  164  A    between atoms: _389  and  _390
REMARK  165  A    between atoms: _390  and  _391
REMARK  166  A    between atoms: _393  and  _395
REMARK  167  A    between atoms: _395  and  _396
REMARK  168  A    between atoms: _395  and  _398
REMARK  169  A    between atoms: _398  and  _399
REMARK  170  A    between atoms: _402  and  _404
REMARK  171  A    between atoms: _404  and  _405
REMARK  172  A    between atoms: _407  and  _409
REMARK  173  A    between atoms: _409  and  _410
REMARK  174  A    between atoms: _412  and  _414
REMARK  175  A    between atoms: _414  and  _415
REMARK  176  A    between atoms: _414  and  _417
REMARK  177  A    between atoms: _417  and  _418
REMARK  178  A    between atoms: _421  and  _423
REMARK  179  A    between atoms: _423  and  _424
REMARK  180  A    between atoms: _426  and  _428
REMARK  181  A    between atoms: _428  and  _429
REMARK  182  A    between atoms: _431  and  _433
REMARK  183  A    between atoms: _433  and  _434
REMARK  184  A    between atoms: _433  and  _436
REMARK  185  A    between atoms: _436  and  _437
REMARK  186  A    between atoms: _443  and  _445
REMARK  187  A    between atoms: _445  and  _446
REMARK  188  A    between atoms: _445  and  _448
REMARK  189  A    between atoms: _448  and  _449
REMARK  190  A    between atoms: _452  and  _454
REMARK  191  A    between atoms: _454  and  _455
REMARK  192  A    between atoms: _454  and  _457
REMARK  193  A    between atoms: _460  and  _462
REMARK  194  A    between atoms: _462  and  _463
REMARK  195  A    between atoms: _462  and  _465
REMARK  196  A    between atoms: _465  and  _466
REMARK  197  A    between atoms: _469  and  _471
REMARK  198  A    between atoms: _471  and  _472
REMARK  199  A    between atoms: _471  and  _474
REMARK  200  A    between atoms: _474  and  _475
REMARK  201  A    between atoms: _479  and  _480
REMARK  202  A    between atoms: _485  and  _487
REMARK  203  A    between atoms: _487  and  _488
REMARK  204  A    between atoms: _487  and  _490
REMARK  205  A    between atoms: _493  and  _495
REMARK  206  A    between atoms: _495  and  _496
REMARK  207  A    between atoms: _495  and  _498
REMARK  208  A    between atoms: _498  and  _499
REMARK  209  A    between atoms: _504  and  _506
REMARK  210  A    between atoms: _506  and  _507
REMARK  211  A    between atoms: _506  and  _509
REMARK  212  A    between atoms: _509  and  _510
REMARK  213  A    between atoms: _513  and  _515
REMARK  214  A    between atoms: _515  and  _516
REMARK  215  A    between atoms: _515  and  _518
REMARK  216  A    between atoms: _518  and  _519
REMARK  217  A    between atoms: _522  and  _524
REMARK  218  A    between atoms: _524  and  _525
REMARK  219  A    between atoms: _527  and  _529
REMARK  220  A    between atoms: _529  and  _530
REMARK  221  A    between atoms: _529  and  _532
REMARK  222  A    between atoms: _532  and  _533
REMARK  223  A    between atoms: _533  and  _534
REMARK  224  A    between atoms: _534  and  _535
REMARK  225  A    between atoms: _544  and  _546
REMARK  226  A    between atoms: _546  and  _547
REMARK  227  A    between atoms: _546  and  _549
REMARK  228  A    between atoms: _549  and  _550
REMARK                            x       y       z     vdW  Elec       q    Type
REMARK                         _______ _______ _______ _____ _____    ______ ____
ROOT
ATOM      1  O   HOH     1      31.169  21.973   8.152  0.00  0.00    +0.000 OA
ENDROOT
TORSDOF 0
REMARK  Name = ../refined-set-2016/2qi4/2qi4_pocket.pdb
REMARK  228 active torsions:
REMARK  status: ('A' for Active; 'I' for Inactive)
REMARK    1  A    between atoms: _1  and  _3
REMARK    2  A    between atoms: _3  and  _4
REMARK    3  A    between atoms: _3  and  _6
REMARK    4  A    between atoms: _6  and  _7
REMARK    5  A    between atoms: _7  and  _8
REMARK    6  A    between atoms: _8  and  _9
REMARK    7  A    between atoms: _18  and  _20
REMARK    8  A    between atoms: _20  and  _21
REMARK    9  A    between atoms: _20  and  _23
REMARK   10  A    between atoms: _23  and  _24
REMARK   11  A    between atoms: _27  and  _29
REMARK   12  A    between atoms: _29  and  _30
REMARK   13  A    between atoms: _29  and  _32
REMARK   14  A    between atoms: _32  and  _33
REMARK   15  A    between atoms: _36  and  _38
REMARK   16  A    between atoms: _38  and  _39
REMARK   17  A    between atoms: _38  and  _41
REMARK   18  A    between atoms: _41  and  _42
REMARK   19  A    between atoms: _45  and  _47
REMARK   20  A    between atoms: _47  and  _48
REMARK   21  A    between atoms: _47  and  _50
REMARK   22  A    between atoms: _50  and  _51
REMARK   23  A    between atoms: _54  and  _56
REMARK   24  A    between atoms: _56  and  _57
REMARK   25  A    between atoms: _59  and  _61
REMARK   26  A    between atoms: _61  and  _62
REMARK   27  A    between atoms: _65  and  _67
REMARK   28  A    between atoms: _67  and  _68
REMARK   29  A    between atoms: _67  and  _70
REMARK   30  A    between atoms: _70  and  _71
REMARK   31  A    between atoms: _74  and  _76
REMARK   32  A    between atoms: _76  and  _77
REMARK   33  A    between atoms: _76  and  _79
REMARK   34  A    between atoms: _79  and  _80
REMARK   35  A    between atoms: _83  and  _85
REMARK   36  A    between atoms: _85  and  _86
REMARK   37  A    between atoms: _85  and  _88
REMARK   38  A    between atoms: _88  and  _89
REMARK   39  A    between atoms: _92  and  _94
REMARK   40  A    between atoms: _94  and  _95
REMARK   41  A    between atoms: _94  and  _97
REMARK   42  A    between atoms: _100  and  _102
REMARK   43  A    between atoms: _102  and  _103
REMARK   44  A    between atoms: _102  and  _105
REMARK   45  A    between atoms: _105  and  _106
REMARK   46  A    between atoms: _106  and  _107
REMARK   47  A    between atoms: _107  and  _108
REMARK   48  A    between atoms: _108  and  _109
REMARK   49  A    between atoms: _113  and  _115
REMARK   50  A    between atoms: _115  and  _116
REMARK   51  A    between atoms: _115  and  _118
REMARK   52  A    between atoms: _118  and  _119
REMARK   53  A    between atoms: _119  and  _120
REMARK   54  A    between atoms: _122  and  _124
REMARK   55  A    between atoms: _124  and  _125
REMARK   56  A    between atoms: _124  and  _127
REMARK   57  A    between atoms: _127  and  _128
REMARK   58  A    between atoms: _131  and  _133
REMARK   59  A    between atoms: _133  and  _134
REMARK   60  A    between atoms: _136  and  _138
REMARK   61  A    between atoms: _138  and  _139
REMARK   62  A    between atoms: _141  and  _143
REMARK   63  A    between atoms: _143  and  _144
REMARK   64  A    between atoms: _143  and  _146
REMARK   65  A    between atoms: _146  and  _147
REMARK   66  A    between atoms: _150  and  _152
REMARK   67  A    between atoms: _152  and  _153
REMARK   68  A    between atoms: _155  and  _157
REMARK   69  A    between atoms: _157  and  _158
REMARK   70  A    between atoms: _160  and  _162
REMARK   71  A    between atoms: _162  and  _163
REMARK   72  A    between atoms: _162  and  _165
REMARK   73  A    between atoms: _165  and  _166
REMARK   74  A    between atoms: _169  and  _171
REMARK   75  A    between atoms: _171  and  _172
REMARK   76  A    between atoms: _171  and  _174
REMARK   77  A    between atoms: _177  and  _179
REMARK   78  A    between atoms: _179  and  _180
REMARK   79  A    between atoms: _179  and  _182
REMARK   80  A    between atoms: _182  and  _183
REMARK   81  A    between atoms: _186  and  _188
REMARK   82  A    between atoms: _188  and  _189
REMARK   83  A    between atoms: _188  and  _191
REMARK   84  A    between atoms: _191  and  _192
REMARK   85  A    between atoms: _196  and  _197
REMARK   86  A    between atoms: _202  and  _204
REMARK   87  A    between atoms: _204  and  _205
REMARK   88  A    between atoms: _204  and  _207
REMARK   89  A    between atoms: _210  and  _212
REMARK   90  A    between atoms: _212  and  _213
REMARK   91  A    between atoms: _212  and  _215
REMARK   92  A    between atoms: _215  and  _216
REMARK   93  A    between atoms: _221  and  _223
REMARK   94  A    between atoms: _223  and  _224
REMARK   95  A    between atoms: _223  and  _226
REMARK   96  A    between atoms: _226  and  _227
REMARK   97  A    between atoms: _230  and  _232
REMARK   98  A    between atoms: _232  and  _233
REMARK   99  A    between atoms: _232  and  _235
REMARK  100  A    between atoms: _235  and  _236
REMARK  101  A    between atoms: _239  and  _241
REMARK  102  A    between atoms: _241  and  _242
REMARK  103  A    between atoms: _244  and  _246
REMARK  104  A    between atoms: _246  and  _247
REMARK  105  A    between atoms: _246  and  _249
REMARK  106  A    between atoms: _249  and  _250
REMARK  107  A    between atoms: _250  and  _251
REMARK  108  A    between atoms: _251  and  _252
REMARK  109  A    between atoms: _261  and  _263
REMARK  110  A    between atoms: _263  and  _264
REMARK  111  A    between atoms: _263  and  _266
REMARK  112  A    between atoms: _266  and  _267
REMARK  113  A    between atoms: _272  and  _274
REMARK  114  A    between atoms: _274  and  _275
REMARK  115  A    between atoms: _274  and  _277
REMARK  116  A    between atoms: _277  and  _278
REMARK  117  A    between atoms: _278  and  _279
REMARK  118  A    between atoms: _279  and  _280
REMARK  119  A    between atoms: _289  and  _291
REMARK  120  A    between atoms: _291  and  _292
REMARK  121  A    between atoms: _291  and  _294
REMARK  122  A    between atoms: _294  and  _295
REMARK  123  A    between atoms: _298  and  _300
REMARK  124  A    between atoms: _300  and  _301
REMARK  125  A    between atoms: _300  and  _303
REMARK  126  A    between atoms: _303  and  _304
REMARK  127  A    between atoms: _307  and  _309
REMARK  128  A    between atoms: _309  and  _310
REMARK  129  A    between atoms: _309  and  _312
REMARK  130  A    between atoms: _312  and  _313
REMARK  131  A    between atoms: _316  and  _318
REMARK  132  A    between atoms: _318  and  _319
REMARK  133  A    between atoms: _318  and  _321
REMARK  134  A    between atoms: _321  and  _322
REMARK  135  A    between atoms: _325  and  _327
REMARK  136  A    between atoms: _327  and  _328
REMARK  137  A    between atoms: _330  and  _332
REMARK  138  A    between atoms: _332  and  _333
REMARK  139  A    between atoms: _336  and  _338
REMARK  140  A    between atoms: _338  and  _339
REMARK  141  A    between atoms: _338  and  _341
REMARK  142  A    between atoms: _341  and  _342
REMARK  143  A    between atoms: _345  and  _347
REMARK  144  A    between atoms: _347  and  _348
REMARK  145  A    between atoms: _347  and  _350
REMARK  146  A    between atoms: _350  and  _351
REMARK  147  A    between atoms: _354  and  _356
REMARK  148  A    between atoms: _356  and  _357
REMARK  149  A    between atoms: _356  and  _359
REMARK  150  A    between atoms: _359  and  _360
REMARK  151  A    between atoms: _363  and  _365
REMARK  152  A    between atoms: _365  and  _366
REMARK  153  A    between atoms: _365  and  _368
REMARK  154  A    between atoms: _371  and  _373
REMARK  155  A    between atoms: _373  and  _374
REMARK  156  A    between atoms: _373  and  _376
REMARK  157  A    between atoms: _376  and  _377
REMARK  158  A    between atoms: _377  and  _378
REMARK  159  A    between atoms: _378  and  _379
REMARK  160  A    between atoms: _379  and  _380
REMARK  161  A    between atoms: _384  and  _386
REMARK  162  A    between atoms: _386  and  _387
REMARK  163  A    between atoms: _386  and  _389
REMARK  164  A    between atoms: _389  and  _390
REMARK  165  A    between atoms: _390  and  _391
REMARK  166  A    between atoms: _393  and  _395
REMARK  167  A    between atoms: _395  and  _396
REMARK  168  A    between atoms: _395  and  _398
REMARK  169  A    between atoms: _398  and  _399
REMARK  170  A    between atoms: _402  and  _404
REMARK  171  A    between atoms: _404  and  _405
REMARK  172  A    between atoms: _407  and  _409
REMARK  173  A    between atoms: _409  and  _410
REMARK  174  A    between atoms: _412  and  _414
REMARK  175  A    between atoms: _414  and  _415
REMARK  176  A    between atoms: _414  and  _417
REMARK  177  A    between atoms: _417  and  _418
REMARK  178  A    between atoms: _421  and  _423
REMARK  179  A    between atoms: _423  and  _424
REMARK  180  A    between atoms: _426  and  _428
REMARK  181  A    between atoms: _428  and  _429
REMARK  182  A    between atoms: _431  and  _433
REMARK  183  A    between atoms: _433  and  _434
REMARK  184  A    between atoms: _433  and  _436
REMARK  185  A    between atoms: _436  and  _437
REMARK  186  A    between atoms: _443  and  _445
REMARK  187  A    between atoms: _445  and  _446
REMARK  188  A    between atoms: _445  and  _448
REMARK  189  A    between atoms: _448  and  _449
REMARK  190  A    between atoms: _452  and  _454
REMARK  191  A    between atoms: _454  and  _455
REMARK  192  A    between atoms: _454  and  _457
REMARK  193  A    between atoms: _460  and  _462
REMARK  194  A    between atoms: _462  and  _463
REMARK  195  A    between atoms: _462  and  _465
REMARK  196  A    between atoms: _465  and  _466
REMARK  197  A    between atoms: _469  and  _471
REMARK  198  A    between atoms: _471  and  _472
REMARK  199  A    between atoms: _471  and  _474
REMARK  200  A    between atoms: _474  and  _475
REMARK  201  A    between atoms: _479  and  _480
REMARK  202  A    between atoms: _485  and  _487
REMARK  203  A    between atoms: _487  and  _488
REMARK  204  A    between atoms: _487  and  _490
REMARK  205  A    between atoms: _493  and  _495
REMARK  206  A    between atoms: _495  and  _496
REMARK  207  A    between atoms: _495  and  _498
REMARK  208  A    between atoms: _498  and  _499
REMARK  209  A    between atoms: _504  and  _506
REMARK  210  A    between atoms: _506  and  _507
REMARK  211  A    between atoms: _506  and  _509
REMARK  212  A    between atoms: _509  and  _510
REMARK  213  A    between atoms: _513  and  _515
REMARK  214  A    between atoms: _515  and  _516
REMARK  215  A    between atoms: _515  and  _518
REMARK  216  A    between atoms: _518  and  _519
REMARK  217  A    between atoms: _522  and  _524
REMARK  218  A    between atoms: _524  and  _525
REMARK  219  A    between atoms: _527  and  _529
REMARK  220  A    between atoms: _529  and  _530
REMARK  221  A    between atoms: _529  and  _532
REMARK  222  A    between atoms: _532  and  _533
REMARK  223  A    between atoms: _533  and  _534
REMARK  224  A    between atoms: _534  and  _535
REMARK  225  A    between atoms: _544  and  _546
REMARK  226  A    between atoms: _546  and  _547
REMARK  227  A    between atoms: _546  and  _549
REMARK  228  A    between atoms: _549  and  _550
REMARK                            x       y       z     vdW  Elec       q    Type
REMARK                         _______ _______ _______ _____ _____    ______ ____
ROOT
ATOM      1  O   HOH     1      26.552  22.918   5.287  0.00  0.00    +0.000 OA
ENDROOT
TORSDOF 0
REMARK  Name = ../refined-set-2016/2qi4/2qi4_pocket.pdb
REMARK  228 active torsions:
REMARK  status: ('A' for Active; 'I' for Inactive)
REMARK    1  A    between atoms: _1  and  _3
REMARK    2  A    between atoms: _3  and  _4
REMARK    3  A    between atoms: _3  and  _6
REMARK    4  A    between atoms: _6  and  _7
REMARK    5  A    between atoms: _7  and  _8
REMARK    6  A    between atoms: _8  and  _9
REMARK    7  A    between atoms: _18  and  _20
REMARK    8  A    between atoms: _20  and  _21
REMARK    9  A    between atoms: _20  and  _23
REMARK   10  A    between atoms: _23  and  _24
REMARK   11  A    between atoms: _27  and  _29
REMARK   12  A    between atoms: _29  and  _30
REMARK   13  A    between atoms: _29  and  _32
REMARK   14  A    between atoms: _32  and  _33
REMARK   15  A    between atoms: _36  and  _38
REMARK   16  A    between atoms: _38  and  _39
REMARK   17  A    between atoms: _38  and  _41
REMARK   18  A    between atoms: _41  and  _42
REMARK   19  A    between atoms: _45  and  _47
REMARK   20  A    between atoms: _47  and  _48
REMARK   21  A    between atoms: _47  and  _50
REMARK   22  A    between atoms: _50  and  _51
REMARK   23  A    between atoms: _54  and  _56
REMARK   24  A    between atoms: _56  and  _57
REMARK   25  A    between atoms: _59  and  _61
REMARK   26  A    between atoms: _61  and  _62
REMARK   27  A    between atoms: _65  and  _67
REMARK   28  A    between atoms: _67  and  _68
REMARK   29  A    between atoms: _67  and  _70
REMARK   30  A    between atoms: _70  and  _71
REMARK   31  A    between atoms: _74  and  _76
REMARK   32  A    between atoms: _76  and  _77
REMARK   33  A    between atoms: _76  and  _79
REMARK   34  A    between atoms: _79  and  _80
REMARK   35  A    between atoms: _83  and  _85
REMARK   36  A    between atoms: _85  and  _86
REMARK   37  A    between atoms: _85  and  _88
REMARK   38  A    between atoms: _88  and  _89
REMARK   39  A    between atoms: _92  and  _94
REMARK   40  A    between atoms: _94  and  _95
REMARK   41  A    between atoms: _94  and  _97
REMARK   42  A    between atoms: _100  and  _102
REMARK   43  A    between atoms: _102  and  _103
REMARK   44  A    between atoms: _102  and  _105
REMARK   45  A    between atoms: _105  and  _106
REMARK   46  A    between atoms: _106  and  _107
REMARK   47  A    between atoms: _107  and  _108
REMARK   48  A    between atoms: _108  and  _109
REMARK   49  A    between atoms: _113  and  _115
REMARK   50  A    between atoms: _115  and  _116
REMARK   51  A    between atoms: _115  and  _118
REMARK   52  A    between atoms: _118  and  _119
REMARK   53  A    between atoms: _119  and  _120
REMARK   54  A    between atoms: _122  and  _124
REMARK   55  A    between atoms: _124  and  _125
REMARK   56  A    between atoms: _124  and  _127
REMARK   57  A    between atoms: _127  and  _128
REMARK   58  A    between atoms: _131  and  _133
REMARK   59  A    between atoms: _133  and  _134
REMARK   60  A    between atoms: _136  and  _138
REMARK   61  A    between atoms: _138  and  _139
REMARK   62  A    between atoms: _141  and  _143
REMARK   63  A    between atoms: _143  and  _144
REMARK   64  A    between atoms: _143  and  _146
REMARK   65  A    between atoms: _146  and  _147
REMARK   66  A    between atoms: _150  and  _152
REMARK   67  A    between atoms: _152  and  _153
REMARK   68  A    between atoms: _155  and  _157
REMARK   69  A    between atoms: _157  and  _158
REMARK   70  A    between atoms: _160  and  _162
REMARK   71  A    between atoms: _162  and  _163
REMARK   72  A    between atoms: _162  and  _165
REMARK   73  A    between atoms: _165  and  _166
REMARK   74  A    between atoms: _169  and  _171
REMARK   75  A    between atoms: _171  and  _172
REMARK   76  A    between atoms: _171  and  _174
REMARK   77  A    between atoms: _177  and  _179
REMARK   78  A    between atoms: _179  and  _180
REMARK   79  A    between atoms: _179  and  _182
REMARK   80  A    between atoms: _182  and  _183
REMARK   81  A    between atoms: _186  and  _188
REMARK   82  A    between atoms: _188  and  _189
REMARK   83  A    between atoms: _188  and  _191
REMARK   84  A    between atoms: _191  and  _192
REMARK   85  A    between atoms: _196  and  _197
REMARK   86  A    between atoms: _202  and  _204
REMARK   87  A    between atoms: _204  and  _205
REMARK   88  A    between atoms: _204  and  _207
REMARK   89  A    between atoms: _210  and  _212
REMARK   90  A    between atoms: _212  and  _213
REMARK   91  A    between atoms: _212  and  _215
REMARK   92  A    between atoms: _215  and  _216
REMARK   93  A    between atoms: _221  and  _223
REMARK   94  A    between atoms: _223  and  _224
REMARK   95  A    between atoms: _223  and  _226
REMARK   96  A    between atoms: _226  and  _227
REMARK   97  A    between atoms: _230  and  _232
REMARK   98  A    between atoms: _232  and  _233
REMARK   99  A    between atoms: _232  and  _235
REMARK  100  A    between atoms: _235  and  _236
REMARK  101  A    between atoms: _239  and  _241
REMARK  102  A    between atoms: _241  and  _242
REMARK  103  A    between atoms: _244  and  _246
REMARK  104  A    between atoms: _246  and  _247
REMARK  105  A    between atoms: _246  and  _249
REMARK  106  A    between atoms: _249  and  _250
REMARK  107  A    between atoms: _250  and  _251
REMARK  108  A    between atoms: _251  and  _252
REMARK  109  A    between atoms: _261  and  _263
REMARK  110  A    between atoms: _263  and  _264
REMARK  111  A    between atoms: _263  and  _266
REMARK  112  A    between atoms: _266  and  _267
REMARK  113  A    between atoms: _272  and  _274
REMARK  114  A    between atoms: _274  and  _275
REMARK  115  A    between atoms: _274  and  _277
REMARK  116  A    between atoms: _277  and  _278
REMARK  117  A    between atoms: _278  and  _279
REMARK  118  A    between atoms: _279  and  _280
REMARK  119  A    between atoms: _289  and  _291
REMARK  120  A    between atoms: _291  and  _292
REMARK  121  A    between atoms: _291  and  _294
REMARK  122  A    between atoms: _294  and  _295
REMARK  123  A    between atoms: _298  and  _300
REMARK  124  A    between atoms: _300  and  _301
REMARK  125  A    between atoms: _300  and  _303
REMARK  126  A    between atoms: _303  and  _304
REMARK  127  A    between atoms: _307  and  _309
REMARK  128  A    between atoms: _309  and  _310
REMARK  129  A    between atoms: _309  and  _312
REMARK  130  A    between atoms: _312  and  _313
REMARK  131  A    between atoms: _316  and  _318
REMARK  132  A    between atoms: _318  and  _319
REMARK  133  A    between atoms: _318  and  _321
REMARK  134  A    between atoms: _321  and  _322
REMARK  135  A    between atoms: _325  and  _327
REMARK  136  A    between atoms: _327  and  _328
REMARK  137  A    between atoms: _330  and  _332
REMARK  138  A    between atoms: _332  and  _333
REMARK  139  A    between atoms: _336  and  _338
REMARK  140  A    between atoms: _338  and  _339
REMARK  141  A    between atoms: _338  and  _341
REMARK  142  A    between atoms: _341  and  _342
REMARK  143  A    between atoms: _345  and  _347
REMARK  144  A    between atoms: _347  and  _348
REMARK  145  A    between atoms: _347  and  _350
REMARK  146  A    between atoms: _350  and  _351
REMARK  147  A    between atoms: _354  and  _356
REMARK  148  A    between atoms: _356  and  _357
REMARK  149  A    between atoms: _356  and  _359
REMARK  150  A    between atoms: _359  and  _360
REMARK  151  A    between atoms: _363  and  _365
REMARK  152  A    between atoms: _365  and  _366
REMARK  153  A    between atoms: _365  and  _368
REMARK  154  A    between atoms: _371  and  _373
REMARK  155  A    between atoms: _373  and  _374
REMARK  156  A    between atoms: _373  and  _376
REMARK  157  A    between atoms: _376  and  _377
REMARK  158  A    between atoms: _377  and  _378
REMARK  159  A    between atoms: _378  and  _379
REMARK  160  A    between atoms: _379  and  _380
REMARK  161  A    between atoms: _384  and  _386
REMARK  162  A    between atoms: _386  and  _387
REMARK  163  A    between atoms: _386  and  _389
REMARK  164  A    between atoms: _389  and  _390
REMARK  165  A    between atoms: _390  and  _391
REMARK  166  A    between atoms: _393  and  _395
REMARK  167  A    between atoms: _395  and  _396
REMARK  168  A    between atoms: _395  and  _398
REMARK  169  A    between atoms: _398  and  _399
REMARK  170  A    between atoms: _402  and  _404
REMARK  171  A    between atoms: _404  and  _405
REMARK  172  A    between atoms: _407  and  _409
REMARK  173  A    between atoms: _409  and  _410
REMARK  174  A    between atoms: _412  and  _414
REMARK  175  A    between atoms: _414  and  _415
REMARK  176  A    between atoms: _414  and  _417
REMARK  177  A    between atoms: _417  and  _418
REMARK  178  A    between atoms: _421  and  _423
REMARK  179  A    between atoms: _423  and  _424
REMARK  180  A    between atoms: _426  and  _428
REMARK  181  A    between atoms: _428  and  _429
REMARK  182  A    between atoms: _431  and  _433
REMARK  183  A    between atoms: _433  and  _434
REMARK  184  A    between atoms: _433  and  _436
REMARK  185  A    between atoms: _436  and  _437
REMARK  186  A    between atoms: _443  and  _445
REMARK  187  A    between atoms: _445  and  _446
REMARK  188  A    between atoms: _445  and  _448
REMARK  189  A    between atoms: _448  and  _449
REMARK  190  A    between atoms: _452  and  _454
REMARK  191  A    between atoms: _454  and  _455
REMARK  192  A    between atoms: _454  and  _457
REMARK  193  A    between atoms: _460  and  _462
REMARK  194  A    between atoms: _462  and  _463
REMARK  195  A    between atoms: _462  and  _465
REMARK  196  A    between atoms: _465  and  _466
REMARK  197  A    between atoms: _469  and  _471
REMARK  198  A    between atoms: _471  and  _472
REMARK  199  A    between atoms: _471  and  _474
REMARK  200  A    between atoms: _474  and  _475
REMARK  201  A    between atoms: _479  and  _480
REMARK  202  A    between atoms: _485  and  _487
REMARK  203  A    between atoms: _487  and  _488
REMARK  204  A    between atoms: _487  and  _490
REMARK  205  A    between atoms: _493  and  _495
REMARK  206  A    between atoms: _495  and  _496
REMARK  207  A    between atoms: _495  and  _498
REMARK  208  A    between atoms: _498  and  _499
REMARK  209  A    between atoms: _504  and  _506
REMARK  210  A    between atoms: _506  and  _507
REMARK  211  A    between atoms: _506  and  _509
REMARK  212  A    between atoms: _509  and  _510
REMARK  213  A    between atoms: _513  and  _515
REMARK  214  A    between atoms: _515  and  _516
REMARK  215  A    between atoms: _515  and  _518
REMARK  216  A    between atoms: _518  and  _519
REMARK  217  A    between atoms: _522  and  _524
REMARK  218  A    between atoms: _524  and  _525
REMARK  219  A    between atoms: _527  and  _529
REMARK  220  A    between atoms: _529  and  _530
REMARK  221  A    between atoms: _529  and  _532
REMARK  222  A    between atoms: _532  and  _533
REMARK  223  A    between atoms: _533  and  _534
REMARK  224  A    between atoms: _534  and  _535
REMARK  225  A    between atoms: _544  and  _546
REMARK  226  A    between atoms: _546  and  _547
REMARK  227  A    between atoms: _546  and  _549
REMARK  228  A    between atoms: _549  and  _550
REMARK                            x       y       z     vdW  Elec       q    Type
REMARK                         _______ _______ _______ _____ _____    ______ ____
ROOT
ATOM      1  O   HOH     1      21.737  41.833  21.449  0.00  0.00    +0.000 OA
ENDROOT
TORSDOF 0
REMARK  Name = ../refined-set-2016/2qi4/2qi4_pocket.pdb
REMARK  228 active torsions:
REMARK  status: ('A' for Active; 'I' for Inactive)
REMARK    1  A    between atoms: _1  and  _3
REMARK    2  A    between atoms: _3  and  _4
REMARK    3  A    between atoms: _3  and  _6
REMARK    4  A    between atoms: _6  and  _7
REMARK    5  A    between atoms: _7  and  _8
REMARK    6  A    between atoms: _8  and  _9
REMARK    7  A    between atoms: _18  and  _20
REMARK    8  A    between atoms: _20  and  _21
REMARK    9  A    between atoms: _20  and  _23
REMARK   10  A    between atoms: _23  and  _24
REMARK   11  A    between atoms: _27  and  _29
REMARK   12  A    between atoms: _29  and  _30
REMARK   13  A    between atoms: _29  and  _32
REMARK   14  A    between atoms: _32  and  _33
REMARK   15  A    between atoms: _36  and  _38
REMARK   16  A    between atoms: _38  and  _39
REMARK   17  A    between atoms: _38  and  _41
REMARK   18  A    between atoms: _41  and  _42
REMARK   19  A    between atoms: _45  and  _47
REMARK   20  A    between atoms: _47  and  _48
REMARK   21  A    between atoms: _47  and  _50
REMARK   22  A    between atoms: _50  and  _51
REMARK   23  A    between atoms: _54  and  _56
REMARK   24  A    between atoms: _56  and  _57
REMARK   25  A    between atoms: _59  and  _61
REMARK   26  A    between atoms: _61  and  _62
REMARK   27  A    between atoms: _65  and  _67
REMARK   28  A    between atoms: _67  and  _68
REMARK   29  A    between atoms: _67  and  _70
REMARK   30  A    between atoms: _70  and  _71
REMARK   31  A    between atoms: _74  and  _76
REMARK   32  A    between atoms: _76  and  _77
REMARK   33  A    between atoms: _76  and  _79
REMARK   34  A    between atoms: _79  and  _80
REMARK   35  A    between atoms: _83  and  _85
REMARK   36  A    between atoms: _85  and  _86
REMARK   37  A    between atoms: _85  and  _88
REMARK   38  A    between atoms: _88  and  _89
REMARK   39  A    between atoms: _92  and  _94
REMARK   40  A    between atoms: _94  and  _95
REMARK   41  A    between atoms: _94  and  _97
REMARK   42  A    between atoms: _100  and  _102
REMARK   43  A    between atoms: _102  and  _103
REMARK   44  A    between atoms: _102  and  _105
REMARK   45  A    between atoms: _105  and  _106
REMARK   46  A    between atoms: _106  and  _107
REMARK   47  A    between atoms: _107  and  _108
REMARK   48  A    between atoms: _108  and  _109
REMARK   49  A    between atoms: _113  and  _115
REMARK   50  A    between atoms: _115  and  _116
REMARK   51  A    between atoms: _115  and  _118
REMARK   52  A    between atoms: _118  and  _119
REMARK   53  A    between atoms: _119  and  _120
REMARK   54  A    between atoms: _122  and  _124
REMARK   55  A    between atoms: _124  and  _125
REMARK   56  A    between atoms: _124  and  _127
REMARK   57  A    between atoms: _127  and  _128
REMARK   58  A    between atoms: _131  and  _133
REMARK   59  A    between atoms: _133  and  _134
REMARK   60  A    between atoms: _136  and  _138
REMARK   61  A    between atoms: _138  and  _139
REMARK   62  A    between atoms: _141  and  _143
REMARK   63  A    between atoms: _143  and  _144
REMARK   64  A    between atoms: _143  and  _146
REMARK   65  A    between atoms: _146  and  _147
REMARK   66  A    between atoms: _150  and  _152
REMARK   67  A    between atoms: _152  and  _153
REMARK   68  A    between atoms: _155  and  _157
REMARK   69  A    between atoms: _157  and  _158
REMARK   70  A    between atoms: _160  and  _162
REMARK   71  A    between atoms: _162  and  _163
REMARK   72  A    between atoms: _162  and  _165
REMARK   73  A    between atoms: _165  and  _166
REMARK   74  A    between atoms: _169  and  _171
REMARK   75  A    between atoms: _171  and  _172
REMARK   76  A    between atoms: _171  and  _174
REMARK   77  A    between atoms: _177  and  _179
REMARK   78  A    between atoms: _179  and  _180
REMARK   79  A    between atoms: _179  and  _182
REMARK   80  A    between atoms: _182  and  _183
REMARK   81  A    between atoms: _186  and  _188
REMARK   82  A    between atoms: _188  and  _189
REMARK   83  A    between atoms: _188  and  _191
REMARK   84  A    between atoms: _191  and  _192
REMARK   85  A    between atoms: _196  and  _197
REMARK   86  A    between atoms: _202  and  _204
REMARK   87  A    between atoms: _204  and  _205
REMARK   88  A    between atoms: _204  and  _207
REMARK   89  A    between atoms: _210  and  _212
REMARK   90  A    between atoms: _212  and  _213
REMARK   91  A    between atoms: _212  and  _215
REMARK   92  A    between atoms: _215  and  _216
REMARK   93  A    between atoms: _221  and  _223
REMARK   94  A    between atoms: _223  and  _224
REMARK   95  A    between atoms: _223  and  _226
REMARK   96  A    between atoms: _226  and  _227
REMARK   97  A    between atoms: _230  and  _232
REMARK   98  A    between atoms: _232  and  _233
REMARK   99  A    between atoms: _232  and  _235
REMARK  100  A    between atoms: _235  and  _236
REMARK  101  A    between atoms: _239  and  _241
REMARK  102  A    between atoms: _241  and  _242
REMARK  103  A    between atoms: _244  and  _246
REMARK  104  A    between atoms: _246  and  _247
REMARK  105  A    between atoms: _246  and  _249
REMARK  106  A    between atoms: _249  and  _250
REMARK  107  A    between atoms: _250  and  _251
REMARK  108  A    between atoms: _251  and  _252
REMARK  109  A    between atoms: _261  and  _263
REMARK  110  A    between atoms: _263  and  _264
REMARK  111  A    between atoms: _263  and  _266
REMARK  112  A    between atoms: _266  and  _267
REMARK  113  A    between atoms: _272  and  _274
REMARK  114  A    between atoms: _274  and  _275
REMARK  115  A    between atoms: _274  and  _277
REMARK  116  A    between atoms: _277  and  _278
REMARK  117  A    between atoms: _278  and  _279
REMARK  118  A    between atoms: _279  and  _280
REMARK  119  A    between atoms: _289  and  _291
REMARK  120  A    between atoms: _291  and  _292
REMARK  121  A    between atoms: _291  and  _294
REMARK  122  A    between atoms: _294  and  _295
REMARK  123  A    between atoms: _298  and  _300
REMARK  124  A    between atoms: _300  and  _301
REMARK  125  A    between atoms: _300  and  _303
REMARK  126  A    between atoms: _303  and  _304
REMARK  127  A    between atoms: _307  and  _309
REMARK  128  A    between atoms: _309  and  _310
REMARK  129  A    between atoms: _309  and  _312
REMARK  130  A    between atoms: _312  and  _313
REMARK  131  A    between atoms: _316  and  _318
REMARK  132  A    between atoms: _318  and  _319
REMARK  133  A    between atoms: _318  and  _321
REMARK  134  A    between atoms: _321  and  _322
REMARK  135  A    between atoms: _325  and  _327
REMARK  136  A    between atoms: _327  and  _328
REMARK  137  A    between atoms: _330  and  _332
REMARK  138  A    between atoms: _332  and  _333
REMARK  139  A    between atoms: _336  and  _338
REMARK  140  A    between atoms: _338  and  _339
REMARK  141  A    between atoms: _338  and  _341
REMARK  142  A    between atoms: _341  and  _342
REMARK  143  A    between atoms: _345  and  _347
REMARK  144  A    between atoms: _347  and  _348
REMARK  145  A    between atoms: _347  and  _350
REMARK  146  A    between atoms: _350  and  _351
REMARK  147  A    between atoms: _354  and  _356
REMARK  148  A    between atoms: _356  and  _357
REMARK  149  A    between atoms: _356  and  _359
REMARK  150  A    between atoms: _359  and  _360
REMARK  151  A    between atoms: _363  and  _365
REMARK  152  A    between atoms: _365  and  _366
REMARK  153  A    between atoms: _365  and  _368
REMARK  154  A    between atoms: _371  and  _373
REMARK  155  A    between atoms: _373  and  _374
REMARK  156  A    between atoms: _373  and  _376
REMARK  157  A    between atoms: _376  and  _377
REMARK  158  A    between atoms: _377  and  _378
REMARK  159  A    between atoms: _378  and  _379
REMARK  160  A    between atoms: _379  and  _380
REMARK  161  A    between atoms: _384  and  _386
REMARK  162  A    between atoms: _386  and  _387
REMARK  163  A    between atoms: _386  and  _389
REMARK  164  A    between atoms: _389  and  _390
REMARK  165  A    between atoms: _390  and  _391
REMARK  166  A    between atoms: _393  and  _395
REMARK  167  A    between atoms: _395  and  _396
REMARK  168  A    between atoms: _395  and  _398
REMARK  169  A    between atoms: _398  and  _399
REMARK  170  A    between atoms: _402  and  _404
REMARK  171  A    between atoms: _404  and  _405
REMARK  172  A    between atoms: _407  and  _409
REMARK  173  A    between atoms: _409  and  _410
REMARK  174  A    between atoms: _412  and  _414
REMARK  175  A    between atoms: _414  and  _415
REMARK  176  A    between atoms: _414  and  _417
REMARK  177  A    between atoms: _417  and  _418
REMARK  178  A    between atoms: _421  and  _423
REMARK  179  A    between atoms: _423  and  _424
REMARK  180  A    between atoms: _426  and  _428
REMARK  181  A    between atoms: _428  and  _429
REMARK  182  A    between atoms: _431  and  _433
REMARK  183  A    between atoms: _433  and  _434
REMARK  184  A    between atoms: _433  and  _436
REMARK  185  A    between atoms: _436  and  _437
REMARK  186  A    between atoms: _443  and  _445
REMARK  187  A    between atoms: _445  and  _446
REMARK  188  A    between atoms: _445  and  _448
REMARK  189  A    between atoms: _448  and  _449
REMARK  190  A    between atoms: _452  and  _454
REMARK  191  A    between atoms: _454  and  _455
REMARK  192  A    between atoms: _454  and  _457
REMARK  193  A    between atoms: _460  and  _462
REMARK  194  A    between atoms: _462  and  _463
REMARK  195  A    between atoms: _462  and  _465
REMARK  196  A    between atoms: _465  and  _466
REMARK  197  A    between atoms: _469  and  _471
REMARK  198  A    between atoms: _471  and  _472
REMARK  199  A    between atoms: _471  and  _474
REMARK  200  A    between atoms: _474  and  _475
REMARK  201  A    between atoms: _479  and  _480
REMARK  202  A    between atoms: _485  and  _487
REMARK  203  A    between atoms: _487  and  _488
REMARK  204  A    between atoms: _487  and  _490
REMARK  205  A    between atoms: _493  and  _495
REMARK  206  A    between atoms: _495  and  _496
REMARK  207  A    between atoms: _495  and  _498
REMARK  208  A    between atoms: _498  and  _499
REMARK  209  A    between atoms: _504  and  _506
REMARK  210  A    between atoms: _506  and  _507
REMARK  211  A    between atoms: _506  and  _509
REMARK  212  A    between atoms: _509  and  _510
REMARK  213  A    between atoms: _513  and  _515
REMARK  214  A    between atoms: _515  and  _516
REMARK  215  A    between atoms: _515  and  _518
REMARK  216  A    between atoms: _518  and  _519
REMARK  217  A    between atoms: _522  and  _524
REMARK  218  A    between atoms: _524  and  _525
REMARK  219  A    between atoms: _527  and  _529
REMARK  220  A    between atoms: _529  and  _530
REMARK  221  A    between atoms: _529  and  _532
REMARK  222  A    between atoms: _532  and  _533
REMARK  223  A    between atoms: _533  and  _534
REMARK  224  A    between atoms: _534  and  _535
REMARK  225  A    between atoms: _544  and  _546
REMARK  226  A    between atoms: _546  and  _547
REMARK  227  A    between atoms: _546  and  _549
REMARK  228  A    between atoms: _549  and  _550
REMARK                            x       y       z     vdW  Elec       q    Type
REMARK                         _______ _______ _______ _____ _____    ______ ____
ROOT
ATOM      1  O   HOH     1      22.916  36.078  21.139  0.00  0.00    +0.000 OA
ENDROOT
TORSDOF 0
REMARK  Name = ../refined-set-2016/2qi4/2qi4_pocket.pdb
REMARK  228 active torsions:
REMARK  status: ('A' for Active; 'I' for Inactive)
REMARK    1  A    between atoms: _1  and  _3
REMARK    2  A    between atoms: _3  and  _4
REMARK    3  A    between atoms: _3  and  _6
REMARK    4  A    between atoms: _6  and  _7
REMARK    5  A    between atoms: _7  and  _8
REMARK    6  A    between atoms: _8  and  _9
REMARK    7  A    between atoms: _18  and  _20
REMARK    8  A    between atoms: _20  and  _21
REMARK    9  A    between atoms: _20  and  _23
REMARK   10  A    between atoms: _23  and  _24
REMARK   11  A    between atoms: _27  and  _29
REMARK   12  A    between atoms: _29  and  _30
REMARK   13  A    between atoms: _29  and  _32
REMARK   14  A    between atoms: _32  and  _33
REMARK   15  A    between atoms: _36  and  _38
REMARK   16  A    between atoms: _38  and  _39
REMARK   17  A    between atoms: _38  and  _41
REMARK   18  A    between atoms: _41  and  _42
REMARK   19  A    between atoms: _45  and  _47
REMARK   20  A    between atoms: _47  and  _48
REMARK   21  A    between atoms: _47  and  _50
REMARK   22  A    between atoms: _50  and  _51
REMARK   23  A    between atoms: _54  and  _56
REMARK   24  A    between atoms: _56  and  _57
REMARK   25  A    between atoms: _59  and  _61
REMARK   26  A    between atoms: _61  and  _62
REMARK   27  A    between atoms: _65  and  _67
REMARK   28  A    between atoms: _67  and  _68
REMARK   29  A    between atoms: _67  and  _70
REMARK   30  A    between atoms: _70  and  _71
REMARK   31  A    between atoms: _74  and  _76
REMARK   32  A    between atoms: _76  and  _77
REMARK   33  A    between atoms: _76  and  _79
REMARK   34  A    between atoms: _79  and  _80
REMARK   35  A    between atoms: _83  and  _85
REMARK   36  A    between atoms: _85  and  _86
REMARK   37  A    between atoms: _85  and  _88
REMARK   38  A    between atoms: _88  and  _89
REMARK   39  A    between atoms: _92  and  _94
REMARK   40  A    between atoms: _94  and  _95
REMARK   41  A    between atoms: _94  and  _97
REMARK   42  A    between atoms: _100  and  _102
REMARK   43  A    between atoms: _102  and  _103
REMARK   44  A    between atoms: _102  and  _105
REMARK   45  A    between atoms: _105  and  _106
REMARK   46  A    between atoms: _106  and  _107
REMARK   47  A    between atoms: _107  and  _108
REMARK   48  A    between atoms: _108  and  _109
REMARK   49  A    between atoms: _113  and  _115
REMARK   50  A    between atoms: _115  and  _116
REMARK   51  A    between atoms: _115  and  _118
REMARK   52  A    between atoms: _118  and  _119
REMARK   53  A    between atoms: _119  and  _120
REMARK   54  A    between atoms: _122  and  _124
REMARK   55  A    between atoms: _124  and  _125
REMARK   56  A    between atoms: _124  and  _127
REMARK   57  A    between atoms: _127  and  _128
REMARK   58  A    between atoms: _131  and  _133
REMARK   59  A    between atoms: _133  and  _134
REMARK   60  A    between atoms: _136  and  _138
REMARK   61  A    between atoms: _138  and  _139
REMARK   62  A    between atoms: _141  and  _143
REMARK   63  A    between atoms: _143  and  _144
REMARK   64  A    between atoms: _143  and  _146
REMARK   65  A    between atoms: _146  and  _147
REMARK   66  A    between atoms: _150  and  _152
REMARK   67  A    between atoms: _152  and  _153
REMARK   68  A    between atoms: _155  and  _157
REMARK   69  A    between atoms: _157  and  _158
REMARK   70  A    between atoms: _160  and  _162
REMARK   71  A    between atoms: _162  and  _163
REMARK   72  A    between atoms: _162  and  _165
REMARK   73  A    between atoms: _165  and  _166
REMARK   74  A    between atoms: _169  and  _171
REMARK   75  A    between atoms: _171  and  _172
REMARK   76  A    between atoms: _171  and  _174
REMARK   77  A    between atoms: _177  and  _179
REMARK   78  A    between atoms: _179  and  _180
REMARK   79  A    between atoms: _179  and  _182
REMARK   80  A    between atoms: _182  and  _183
REMARK   81  A    between atoms: _186  and  _188
REMARK   82  A    between atoms: _188  and  _189
REMARK   83  A    between atoms: _188  and  _191
REMARK   84  A    between atoms: _191  and  _192
REMARK   85  A    between atoms: _196  and  _197
REMARK   86  A    between atoms: _202  and  _204
REMARK   87  A    between atoms: _204  and  _205
REMARK   88  A    between atoms: _204  and  _207
REMARK   89  A    between atoms: _210  and  _212
REMARK   90  A    between atoms: _212  and  _213
REMARK   91  A    between atoms: _212  and  _215
REMARK   92  A    between atoms: _215  and  _216
REMARK   93  A    between atoms: _221  and  _223
REMARK   94  A    between atoms: _223  and  _224
REMARK   95  A    between atoms: _223  and  _226
REMARK   96  A    between atoms: _226  and  _227
REMARK   97  A    between atoms: _230  and  _232
REMARK   98  A    between atoms: _232  and  _233
REMARK   99  A    between atoms: _232  and  _235
REMARK  100  A    between atoms: _235  and  _236
REMARK  101  A    between atoms: _239  and  _241
REMARK  102  A    between atoms: _241  and  _242
REMARK  103  A    between atoms: _244  and  _246
REMARK  104  A    between atoms: _246  and  _247
REMARK  105  A    between atoms: _246  and  _249
REMARK  106  A    between atoms: _249  and  _250
REMARK  107  A    between atoms: _250  and  _251
REMARK  108  A    between atoms: _251  and  _252
REMARK  109  A    between atoms: _261  and  _263
REMARK  110  A    between atoms: _263  and  _264
REMARK  111  A    between atoms: _263  and  _266
REMARK  112  A    between atoms: _266  and  _267
REMARK  113  A    between atoms: _272  and  _274
REMARK  114  A    between atoms: _274  and  _275
REMARK  115  A    between atoms: _274  and  _277
REMARK  116  A    between atoms: _277  and  _278
REMARK  117  A    between atoms: _278  and  _279
REMARK  118  A    between atoms: _279  and  _280
REMARK  119  A    between atoms: _289  and  _291
REMARK  120  A    between atoms: _291  and  _292
REMARK  121  A    between atoms: _291  and  _294
REMARK  122  A    between atoms: _294  and  _295
REMARK  123  A    between atoms: _298  and  _300
REMARK  124  A    between atoms: _300  and  _301
REMARK  125  A    between atoms: _300  and  _303
REMARK  126  A    between atoms: _303  and  _304
REMARK  127  A    between atoms: _307  and  _309
REMARK  128  A    between atoms: _309  and  _310
REMARK  129  A    between atoms: _309  and  _312
REMARK  130  A    between atoms: _312  and  _313
REMARK  131  A    between atoms: _316  and  _318
REMARK  132  A    between atoms: _318  and  _319
REMARK  133  A    between atoms: _318  and  _321
REMARK  134  A    between atoms: _321  and  _322
REMARK  135  A    between atoms: _325  and  _327
REMARK  136  A    between atoms: _327  and  _328
REMARK  137  A    between atoms: _330  and  _332
REMARK  138  A    between atoms: _332  and  _333
REMARK  139  A    between atoms: _336  and  _338
REMARK  140  A    between atoms: _338  and  _339
REMARK  141  A    between atoms: _338  and  _341
REMARK  142  A    between atoms: _341  and  _342
REMARK  143  A    between atoms: _345  and  _347
REMARK  144  A    between atoms: _347  and  _348
REMARK  145  A    between atoms: _347  and  _350
REMARK  146  A    between atoms: _350  and  _351
REMARK  147  A    between atoms: _354  and  _356
REMARK  148  A    between atoms: _356  and  _357
REMARK  149  A    between atoms: _356  and  _359
REMARK  150  A    between atoms: _359  and  _360
REMARK  151  A    between atoms: _363  and  _365
REMARK  152  A    between atoms: _365  and  _366
REMARK  153  A    between atoms: _365  and  _368
REMARK  154  A    between atoms: _371  and  _373
REMARK  155  A    between atoms: _373  and  _374
REMARK  156  A    between atoms: _373  and  _376
REMARK  157  A    between atoms: _376  and  _377
REMARK  158  A    between atoms: _377  and  _378
REMARK  159  A    between atoms: _378  and  _379
REMARK  160  A    between atoms: _379  and  _380
REMARK  161  A    between atoms: _384  and  _386
REMARK  162  A    between atoms: _386  and  _387
REMARK  163  A    between atoms: _386  and  _389
REMARK  164  A    between atoms: _389  and  _390
REMARK  165  A    between atoms: _390  and  _391
REMARK  166  A    between atoms: _393  and  _395
REMARK  167  A    between atoms: _395  and  _396
REMARK  168  A    between atoms: _395  and  _398
REMARK  169  A    between atoms: _398  and  _399
REMARK  170  A    between atoms: _402  and  _404
REMARK  171  A    between atoms: _404  and  _405
REMARK  172  A    between atoms: _407  and  _409
REMARK  173  A    between atoms: _409  and  _410
REMARK  174  A    between atoms: _412  and  _414
REMARK  175  A    between atoms: _414  and  _415
REMARK  176  A    between atoms: _414  and  _417
REMARK  177  A    between atoms: _417  and  _418
REMARK  178  A    between atoms: _421  and  _423
REMARK  179  A    between atoms: _423  and  _424
REMARK  180  A    between atoms: _426  and  _428
REMARK  181  A    between atoms: _428  and  _429
REMARK  182  A    between atoms: _431  and  _433
REMARK  183  A    between atoms: _433  and  _434
REMARK  184  A    between atoms: _433  and  _436
REMARK  185  A    between atoms: _436  and  _437
REMARK  186  A    between atoms: _443  and  _445
REMARK  187  A    between atoms: _445  and  _446
REMARK  188  A    between atoms: _445  and  _448
REMARK  189  A    between atoms: _448  and  _449
REMARK  190  A    between atoms: _452  and  _454
REMARK  191  A    between atoms: _454  and  _455
REMARK  192  A    between atoms: _454  and  _457
REMARK  193  A    between atoms: _460  and  _462
REMARK  194  A    between atoms: _462  and  _463
REMARK  195  A    between atoms: _462  and  _465
REMARK  196  A    between atoms: _465  and  _466
REMARK  197  A    between atoms: _469  and  _471
REMARK  198  A    between atoms: _471  and  _472
REMARK  199  A    between atoms: _471  and  _474
REMARK  200  A    between atoms: _474  and  _475
REMARK  201  A    between atoms: _479  and  _480
REMARK  202  A    between atoms: _485  and  _487
REMARK  203  A    between atoms: _487  and  _488
REMARK  204  A    between atoms: _487  and  _490
REMARK  205  A    between atoms: _493  and  _495
REMARK  206  A    between atoms: _495  and  _496
REMARK  207  A    between atoms: _495  and  _498
REMARK  208  A    between atoms: _498  and  _499
REMARK  209  A    between atoms: _504  and  _506
REMARK  210  A    between atoms: _506  and  _507
REMARK  211  A    between atoms: _506  and  _509
REMARK  212  A    between atoms: _509  and  _510
REMARK  213  A    between atoms: _513  and  _515
REMARK  214  A    between atoms: _515  and  _516
REMARK  215  A    between atoms: _515  and  _518
REMARK  216  A    between atoms: _518  and  _519
REMARK  217  A    between atoms: _522  and  _524
REMARK  218  A    between atoms: _524  and  _525
REMARK  219  A    between atoms: _527  and  _529
REMARK  220  A    between atoms: _529  and  _530
REMARK  221  A    between atoms: _529  and  _532
REMARK  222  A    between atoms: _532  and  _533
REMARK  223  A    between atoms: _533  and  _534
REMARK  224  A    between atoms: _534  and  _535
REMARK  225  A    between atoms: _544  and  _546
REMARK  226  A    between atoms: _546  and  _547
REMARK  227  A    between atoms: _546  and  _549
REMARK  228  A    between atoms: _549  and  _550
REMARK                            x       y       z     vdW  Elec       q    Type
REMARK                         _______ _______ _______ _____ _____    ______ ____
ROOT
ATOM      1  O   HOH     1      26.672  20.793   9.023  0.00  0.00    +0.000 OA
ENDROOT
TORSDOF 0
REMARK  Name = ../refined-set-2016/2qi4/2qi4_pocket.pdb
REMARK  228 active torsions:
REMARK  status: ('A' for Active; 'I' for Inactive)
REMARK    1  A    between atoms: _1  and  _3
REMARK    2  A    between atoms: _3  and  _4
REMARK    3  A    between atoms: _3  and  _6
REMARK    4  A    between atoms: _6  and  _7
REMARK    5  A    between atoms: _7  and  _8
REMARK    6  A    between atoms: _8  and  _9
REMARK    7  A    between atoms: _18  and  _20
REMARK    8  A    between atoms: _20  and  _21
REMARK    9  A    between atoms: _20  and  _23
REMARK   10  A    between atoms: _23  and  _24
REMARK   11  A    between atoms: _27  and  _29
REMARK   12  A    between atoms: _29  and  _30
REMARK   13  A    between atoms: _29  and  _32
REMARK   14  A    between atoms: _32  and  _33
REMARK   15  A    between atoms: _36  and  _38
REMARK   16  A    between atoms: _38  and  _39
REMARK   17  A    between atoms: _38  and  _41
REMARK   18  A    between atoms: _41  and  _42
REMARK   19  A    between atoms: _45  and  _47
REMARK   20  A    between atoms: _47  and  _48
REMARK   21  A    between atoms: _47  and  _50
REMARK   22  A    between atoms: _50  and  _51
REMARK   23  A    between atoms: _54  and  _56
REMARK   24  A    between atoms: _56  and  _57
REMARK   25  A    between atoms: _59  and  _61
REMARK   26  A    between atoms: _61  and  _62
REMARK   27  A    between atoms: _65  and  _67
REMARK   28  A    between atoms: _67  and  _68
REMARK   29  A    between atoms: _67  and  _70
REMARK   30  A    between atoms: _70  and  _71
REMARK   31  A    between atoms: _74  and  _76
REMARK   32  A    between atoms: _76  and  _77
REMARK   33  A    between atoms: _76  and  _79
REMARK   34  A    between atoms: _79  and  _80
REMARK   35  A    between atoms: _83  and  _85
REMARK   36  A    between atoms: _85  and  _86
REMARK   37  A    between atoms: _85  and  _88
REMARK   38  A    between atoms: _88  and  _89
REMARK   39  A    between atoms: _92  and  _94
REMARK   40  A    between atoms: _94  and  _95
REMARK   41  A    between atoms: _94  and  _97
REMARK   42  A    between atoms: _100  and  _102
REMARK   43  A    between atoms: _102  and  _103
REMARK   44  A    between atoms: _102  and  _105
REMARK   45  A    between atoms: _105  and  _106
REMARK   46  A    between atoms: _106  and  _107
REMARK   47  A    between atoms: _107  and  _108
REMARK   48  A    between atoms: _108  and  _109
REMARK   49  A    between atoms: _113  and  _115
REMARK   50  A    between atoms: _115  and  _116
REMARK   51  A    between atoms: _115  and  _118
REMARK   52  A    between atoms: _118  and  _119
REMARK   53  A    between atoms: _119  and  _120
REMARK   54  A    between atoms: _122  and  _124
REMARK   55  A    between atoms: _124  and  _125
REMARK   56  A    between atoms: _124  and  _127
REMARK   57  A    between atoms: _127  and  _128
REMARK   58  A    between atoms: _131  and  _133
REMARK   59  A    between atoms: _133  and  _134
REMARK   60  A    between atoms: _136  and  _138
REMARK   61  A    between atoms: _138  and  _139
REMARK   62  A    between atoms: _141  and  _143
REMARK   63  A    between atoms: _143  and  _144
REMARK   64  A    between atoms: _143  and  _146
REMARK   65  A    between atoms: _146  and  _147
REMARK   66  A    between atoms: _150  and  _152
REMARK   67  A    between atoms: _152  and  _153
REMARK   68  A    between atoms: _155  and  _157
REMARK   69  A    between atoms: _157  and  _158
REMARK   70  A    between atoms: _160  and  _162
REMARK   71  A    between atoms: _162  and  _163
REMARK   72  A    between atoms: _162  and  _165
REMARK   73  A    between atoms: _165  and  _166
REMARK   74  A    between atoms: _169  and  _171
REMARK   75  A    between atoms: _171  and  _172
REMARK   76  A    between atoms: _171  and  _174
REMARK   77  A    between atoms: _177  and  _179
REMARK   78  A    between atoms: _179  and  _180
REMARK   79  A    between atoms: _179  and  _182
REMARK   80  A    between atoms: _182  and  _183
REMARK   81  A    between atoms: _186  and  _188
REMARK   82  A    between atoms: _188  and  _189
REMARK   83  A    between atoms: _188  and  _191
REMARK   84  A    between atoms: _191  and  _192
REMARK   85  A    between atoms: _196  and  _197
REMARK   86  A    between atoms: _202  and  _204
REMARK   87  A    between atoms: _204  and  _205
REMARK   88  A    between atoms: _204  and  _207
REMARK   89  A    between atoms: _210  and  _212
REMARK   90  A    between atoms: _212  and  _213
REMARK   91  A    between atoms: _212  and  _215
REMARK   92  A    between atoms: _215  and  _216
REMARK   93  A    between atoms: _221  and  _223
REMARK   94  A    between atoms: _223  and  _224
REMARK   95  A    between atoms: _223  and  _226
REMARK   96  A    between atoms: _226  and  _227
REMARK   97  A    between atoms: _230  and  _232
REMARK   98  A    between atoms: _232  and  _233
REMARK   99  A    between atoms: _232  and  _235
REMARK  100  A    between atoms: _235  and  _236
REMARK  101  A    between atoms: _239  and  _241
REMARK  102  A    between atoms: _241  and  _242
REMARK  103  A    between atoms: _244  and  _246
REMARK  104  A    between atoms: _246  and  _247
REMARK  105  A    between atoms: _246  and  _249
REMARK  106  A    between atoms: _249  and  _250
REMARK  107  A    between atoms: _250  and  _251
REMARK  108  A    between atoms: _251  and  _252
REMARK  109  A    between atoms: _261  and  _263
REMARK  110  A    between atoms: _263  and  _264
REMARK  111  A    between atoms: _263  and  _266
REMARK  112  A    between atoms: _266  and  _267
REMARK  113  A    between atoms: _272  and  _274
REMARK  114  A    between atoms: _274  and  _275
REMARK  115  A    between atoms: _274  and  _277
REMARK  116  A    between atoms: _277  and  _278
REMARK  117  A    between atoms: _278  and  _279
REMARK  118  A    between atoms: _279  and  _280
REMARK  119  A    between atoms: _289  and  _291
REMARK  120  A    between atoms: _291  and  _292
REMARK  121  A    between atoms: _291  and  _294
REMARK  122  A    between atoms: _294  and  _295
REMARK  123  A    between atoms: _298  and  _300
REMARK  124  A    between atoms: _300  and  _301
REMARK  125  A    between atoms: _300  and  _303
REMARK  126  A    between atoms: _303  and  _304
REMARK  127  A    between atoms: _307  and  _309
REMARK  128  A    between atoms: _309  and  _310
REMARK  129  A    between atoms: _309  and  _312
REMARK  130  A    between atoms: _312  and  _313
REMARK  131  A    between atoms: _316  and  _318
REMARK  132  A    between atoms: _318  and  _319
REMARK  133  A    between atoms: _318  and  _321
REMARK  134  A    between atoms: _321  and  _322
REMARK  135  A    between atoms: _325  and  _327
REMARK  136  A    between atoms: _327  and  _328
REMARK  137  A    between atoms: _330  and  _332
REMARK  138  A    between atoms: _332  and  _333
REMARK  139  A    between atoms: _336  and  _338
REMARK  140  A    between atoms: _338  and  _339
REMARK  141  A    between atoms: _338  and  _341
REMARK  142  A    between atoms: _341  and  _342
REMARK  143  A    between atoms: _345  and  _347
REMARK  144  A    between atoms: _347  and  _348
REMARK  145  A    between atoms: _347  and  _350
REMARK  146  A    between atoms: _350  and  _351
REMARK  147  A    between atoms: _354  and  _356
REMARK  148  A    between atoms: _356  and  _357
REMARK  149  A    between atoms: _356  and  _359
REMARK  150  A    between atoms: _359  and  _360
REMARK  151  A    between atoms: _363  and  _365
REMARK  152  A    between atoms: _365  and  _366
REMARK  153  A    between atoms: _365  and  _368
REMARK  154  A    between atoms: _371  and  _373
REMARK  155  A    between atoms: _373  and  _374
REMARK  156  A    between atoms: _373  and  _376
REMARK  157  A    between atoms: _376  and  _377
REMARK  158  A    between atoms: _377  and  _378
REMARK  159  A    between atoms: _378  and  _379
REMARK  160  A    between atoms: _379  and  _380
REMARK  161  A    between atoms: _384  and  _386
REMARK  162  A    between atoms: _386  and  _387
REMARK  163  A    between atoms: _386  and  _389
REMARK  164  A    between atoms: _389  and  _390
REMARK  165  A    between atoms: _390  and  _391
REMARK  166  A    between atoms: _393  and  _395
REMARK  167  A    between atoms: _395  and  _396
REMARK  168  A    between atoms: _395  and  _398
REMARK  169  A    between atoms: _398  and  _399
REMARK  170  A    between atoms: _402  and  _404
REMARK  171  A    between atoms: _404  and  _405
REMARK  172  A    between atoms: _407  and  _409
REMARK  173  A    between atoms: _409  and  _410
REMARK  174  A    between atoms: _412  and  _414
REMARK  175  A    between atoms: _414  and  _415
REMARK  176  A    between atoms: _414  and  _417
REMARK  177  A    between atoms: _417  and  _418
REMARK  178  A    between atoms: _421  and  _423
REMARK  179  A    between atoms: _423  and  _424
REMARK  180  A    between atoms: _426  and  _428
REMARK  181  A    between atoms: _428  and  _429
REMARK  182  A    between atoms: _431  and  _433
REMARK  183  A    between atoms: _433  and  _434
REMARK  184  A    between atoms: _433  and  _436
REMARK  185  A    between atoms: _436  and  _437
REMARK  186  A    between atoms: _443  and  _445
REMARK  187  A    between atoms: _445  and  _446
REMARK  188  A    between atoms: _445  and  _448
REMARK  189  A    between atoms: _448  and  _449
REMARK  190  A    between atoms: _452  and  _454
REMARK  191  A    between atoms: _454  and  _455
REMARK  192  A    between atoms: _454  and  _457
REMARK  193  A    between atoms: _460  and  _462
REMARK  194  A    between atoms: _462  and  _463
REMARK  195  A    between atoms: _462  and  _465
REMARK  196  A    between atoms: _465  and  _466
REMARK  197  A    between atoms: _469  and  _471
REMARK  198  A    between atoms: _471  and  _472
REMARK  199  A    between atoms: _471  and  _474
REMARK  200  A    between atoms: _474  and  _475
REMARK  201  A    between atoms: _479  and  _480
REMARK  202  A    between atoms: _485  and  _487
REMARK  203  A    between atoms: _487  and  _488
REMARK  204  A    between atoms: _487  and  _490
REMARK  205  A    between atoms: _493  and  _495
REMARK  206  A    between atoms: _495  and  _496
REMARK  207  A    between atoms: _495  and  _498
REMARK  208  A    between atoms: _498  and  _499
REMARK  209  A    between atoms: _504  and  _506
REMARK  210  A    between atoms: _506  and  _507
REMARK  211  A    between atoms: _506  and  _509
REMARK  212  A    between atoms: _509  and  _510
REMARK  213  A    between atoms: _513  and  _515
REMARK  214  A    between atoms: _515  and  _516
REMARK  215  A    between atoms: _515  and  _518
REMARK  216  A    between atoms: _518  and  _519
REMARK  217  A    between atoms: _522  and  _524
REMARK  218  A    between atoms: _524  and  _525
REMARK  219  A    between atoms: _527  and  _529
REMARK  220  A    between atoms: _529  and  _530
REMARK  221  A    between atoms: _529  and  _532
REMARK  222  A    between atoms: _532  and  _533
REMARK  223  A    between atoms: _533  and  _534
REMARK  224  A    between atoms: _534  and  _535
REMARK  225  A    between atoms: _544  and  _546
REMARK  226  A    between atoms: _546  and  _547
REMARK  227  A    between atoms: _546  and  _549
REMARK  228  A    between atoms: _549  and  _550
REMARK                            x       y       z     vdW  Elec       q    Type
REMARK                         _______ _______ _______ _____ _____    ______ ____
ROOT
ATOM      1  O   HOH     1      15.126  33.825   5.182  0.00  0.00    +0.000 OA
ENDROOT
TORSDOF 0
REMARK  Name = ../refined-set-2016/2qi4/2qi4_pocket.pdb
REMARK  228 active torsions:
REMARK  status: ('A' for Active; 'I' for Inactive)
REMARK    1  A    between atoms: _1  and  _3
REMARK    2  A    between atoms: _3  and  _4
REMARK    3  A    between atoms: _3  and  _6
REMARK    4  A    between atoms: _6  and  _7
REMARK    5  A    between atoms: _7  and  _8
REMARK    6  A    between atoms: _8  and  _9
REMARK    7  A    between atoms: _18  and  _20
REMARK    8  A    between atoms: _20  and  _21
REMARK    9  A    between atoms: _20  and  _23
REMARK   10  A    between atoms: _23  and  _24
REMARK   11  A    between atoms: _27  and  _29
REMARK   12  A    between atoms: _29  and  _30
REMARK   13  A    between atoms: _29  and  _32
REMARK   14  A    between atoms: _32  and  _33
REMARK   15  A    between atoms: _36  and  _38
REMARK   16  A    between atoms: _38  and  _39
REMARK   17  A    between atoms: _38  and  _41
REMARK   18  A    between atoms: _41  and  _42
REMARK   19  A    between atoms: _45  and  _47
REMARK   20  A    between atoms: _47  and  _48
REMARK   21  A    between atoms: _47  and  _50
REMARK   22  A    between atoms: _50  and  _51
REMARK   23  A    between atoms: _54  and  _56
REMARK   24  A    between atoms: _56  and  _57
REMARK   25  A    between atoms: _59  and  _61
REMARK   26  A    between atoms: _61  and  _62
REMARK   27  A    between atoms: _65  and  _67
REMARK   28  A    between atoms: _67  and  _68
REMARK   29  A    between atoms: _67  and  _70
REMARK   30  A    between atoms: _70  and  _71
REMARK   31  A    between atoms: _74  and  _76
REMARK   32  A    between atoms: _76  and  _77
REMARK   33  A    between atoms: _76  and  _79
REMARK   34  A    between atoms: _79  and  _80
REMARK   35  A    between atoms: _83  and  _85
REMARK   36  A    between atoms: _85  and  _86
REMARK   37  A    between atoms: _85  and  _88
REMARK   38  A    between atoms: _88  and  _89
REMARK   39  A    between atoms: _92  and  _94
REMARK   40  A    between atoms: _94  and  _95
REMARK   41  A    between atoms: _94  and  _97
REMARK   42  A    between atoms: _100  and  _102
REMARK   43  A    between atoms: _102  and  _103
REMARK   44  A    between atoms: _102  and  _105
REMARK   45  A    between atoms: _105  and  _106
REMARK   46  A    between atoms: _106  and  _107
REMARK   47  A    between atoms: _107  and  _108
REMARK   48  A    between atoms: _108  and  _109
REMARK   49  A    between atoms: _113  and  _115
REMARK   50  A    between atoms: _115  and  _116
REMARK   51  A    between atoms: _115  and  _118
REMARK   52  A    between atoms: _118  and  _119
REMARK   53  A    between atoms: _119  and  _120
REMARK   54  A    between atoms: _122  and  _124
REMARK   55  A    between atoms: _124  and  _125
REMARK   56  A    between atoms: _124  and  _127
REMARK   57  A    between atoms: _127  and  _128
REMARK   58  A    between atoms: _131  and  _133
REMARK   59  A    between atoms: _133  and  _134
REMARK   60  A    between atoms: _136  and  _138
REMARK   61  A    between atoms: _138  and  _139
REMARK   62  A    between atoms: _141  and  _143
REMARK   63  A    between atoms: _143  and  _144
REMARK   64  A    between atoms: _143  and  _146
REMARK   65  A    between atoms: _146  and  _147
REMARK   66  A    between atoms: _150  and  _152
REMARK   67  A    between atoms: _152  and  _153
REMARK   68  A    between atoms: _155  and  _157
REMARK   69  A    between atoms: _157  and  _158
REMARK   70  A    between atoms: _160  and  _162
REMARK   71  A    between atoms: _162  and  _163
REMARK   72  A    between atoms: _162  and  _165
REMARK   73  A    between atoms: _165  and  _166
REMARK   74  A    between atoms: _169  and  _171
REMARK   75  A    between atoms: _171  and  _172
REMARK   76  A    between atoms: _171  and  _174
REMARK   77  A    between atoms: _177  and  _179
REMARK   78  A    between atoms: _179  and  _180
REMARK   79  A    between atoms: _179  and  _182
REMARK   80  A    between atoms: _182  and  _183
REMARK   81  A    between atoms: _186  and  _188
REMARK   82  A    between atoms: _188  and  _189
REMARK   83  A    between atoms: _188  and  _191
REMARK   84  A    between atoms: _191  and  _192
REMARK   85  A    between atoms: _196  and  _197
REMARK   86  A    between atoms: _202  and  _204
REMARK   87  A    between atoms: _204  and  _205
REMARK   88  A    between atoms: _204  and  _207
REMARK   89  A    between atoms: _210  and  _212
REMARK   90  A    between atoms: _212  and  _213
REMARK   91  A    between atoms: _212  and  _215
REMARK   92  A    between atoms: _215  and  _216
REMARK   93  A    between atoms: _221  and  _223
REMARK   94  A    between atoms: _223  and  _224
REMARK   95  A    between atoms: _223  and  _226
REMARK   96  A    between atoms: _226  and  _227
REMARK   97  A    between atoms: _230  and  _232
REMARK   98  A    between atoms: _232  and  _233
REMARK   99  A    between atoms: _232  and  _235
REMARK  100  A    between atoms: _235  and  _236
REMARK  101  A    between atoms: _239  and  _241
REMARK  102  A    between atoms: _241  and  _242
REMARK  103  A    between atoms: _244  and  _246
REMARK  104  A    between atoms: _246  and  _247
REMARK  105  A    between atoms: _246  and  _249
REMARK  106  A    between atoms: _249  and  _250
REMARK  107  A    between atoms: _250  and  _251
REMARK  108  A    between atoms: _251  and  _252
REMARK  109  A    between atoms: _261  and  _263
REMARK  110  A    between atoms: _263  and  _264
REMARK  111  A    between atoms: _263  and  _266
REMARK  112  A    between atoms: _266  and  _267
REMARK  113  A    between atoms: _272  and  _274
REMARK  114  A    between atoms: _274  and  _275
REMARK  115  A    between atoms: _274  and  _277
REMARK  116  A    between atoms: _277  and  _278
REMARK  117  A    between atoms: _278  and  _279
REMARK  118  A    between atoms: _279  and  _280
REMARK  119  A    between atoms: _289  and  _291
REMARK  120  A    between atoms: _291  and  _292
REMARK  121  A    between atoms: _291  and  _294
REMARK  122  A    between atoms: _294  and  _295
REMARK  123  A    between atoms: _298  and  _300
REMARK  124  A    between atoms: _300  and  _301
REMARK  125  A    between atoms: _300  and  _303
REMARK  126  A    between atoms: _303  and  _304
REMARK  127  A    between atoms: _307  and  _309
REMARK  128  A    between atoms: _309  and  _310
REMARK  129  A    between atoms: _309  and  _312
REMARK  130  A    between atoms: _312  and  _313
REMARK  131  A    between atoms: _316  and  _318
REMARK  132  A    between atoms: _318  and  _319
REMARK  133  A    between atoms: _318  and  _321
REMARK  134  A    between atoms: _321  and  _322
REMARK  135  A    between atoms: _325  and  _327
REMARK  136  A    between atoms: _327  and  _328
REMARK  137  A    between atoms: _330  and  _332
REMARK  138  A    between atoms: _332  and  _333
REMARK  139  A    between atoms: _336  and  _338
REMARK  140  A    between atoms: _338  and  _339
REMARK  141  A    between atoms: _338  and  _341
REMARK  142  A    between atoms: _341  and  _342
REMARK  143  A    between atoms: _345  and  _347
REMARK  144  A    between atoms: _347  and  _348
REMARK  145  A    between atoms: _347  and  _350
REMARK  146  A    between atoms: _350  and  _351
REMARK  147  A    between atoms: _354  and  _356
REMARK  148  A    between atoms: _356  and  _357
REMARK  149  A    between atoms: _356  and  _359
REMARK  150  A    between atoms: _359  and  _360
REMARK  151  A    between atoms: _363  and  _365
REMARK  152  A    between atoms: _365  and  _366
REMARK  153  A    between atoms: _365  and  _368
REMARK  154  A    between atoms: _371  and  _373
REMARK  155  A    between atoms: _373  and  _374
REMARK  156  A    between atoms: _373  and  _376
REMARK  157  A    between atoms: _376  and  _377
REMARK  158  A    between atoms: _377  and  _378
REMARK  159  A    between atoms: _378  and  _379
REMARK  160  A    between atoms: _379  and  _380
REMARK  161  A    between atoms: _384  and  _386
REMARK  162  A    between atoms: _386  and  _387
REMARK  163  A    between atoms: _386  and  _389
REMARK  164  A    between atoms: _389  and  _390
REMARK  165  A    between atoms: _390  and  _391
REMARK  166  A    between atoms: _393  and  _395
REMARK  167  A    between atoms: _395  and  _396
REMARK  168  A    between atoms: _395  and  _398
REMARK  169  A    between atoms: _398  and  _399
REMARK  170  A    between atoms: _402  and  _404
REMARK  171  A    between atoms: _404  and  _405
REMARK  172  A    between atoms: _407  and  _409
REMARK  173  A    between atoms: _409  and  _410
REMARK  174  A    between atoms: _412  and  _414
REMARK  175  A    between atoms: _414  and  _415
REMARK  176  A    between atoms: _414  and  _417
REMARK  177  A    between atoms: _417  and  _418
REMARK  178  A    between atoms: _421  and  _423
REMARK  179  A    between atoms: _423  and  _424
REMARK  180  A    between atoms: _426  and  _428
REMARK  181  A    between atoms: _428  and  _429
REMARK  182  A    between atoms: _431  and  _433
REMARK  183  A    between atoms: _433  and  _434
REMARK  184  A    between atoms: _433  and  _436
REMARK  185  A    between atoms: _436  and  _437
REMARK  186  A    between atoms: _443  and  _445
REMARK  187  A    between atoms: _445  and  _446
REMARK  188  A    between atoms: _445  and  _448
REMARK  189  A    between atoms: _448  and  _449
REMARK  190  A    between atoms: _452  and  _454
REMARK  191  A    between atoms: _454  and  _455
REMARK  192  A    between atoms: _454  and  _457
REMARK  193  A    between atoms: _460  and  _462
REMARK  194  A    between atoms: _462  and  _463
REMARK  195  A    between atoms: _462  and  _465
REMARK  196  A    between atoms: _465  and  _466
REMARK  197  A    between atoms: _469  and  _471
REMARK  198  A    between atoms: _471  and  _472
REMARK  199  A    between atoms: _471  and  _474
REMARK  200  A    between atoms: _474  and  _475
REMARK  201  A    between atoms: _479  and  _480
REMARK  202  A    between atoms: _485  and  _487
REMARK  203  A    between atoms: _487  and  _488
REMARK  204  A    between atoms: _487  and  _490
REMARK  205  A    between atoms: _493  and  _495
REMARK  206  A    between atoms: _495  and  _496
REMARK  207  A    between atoms: _495  and  _498
REMARK  208  A    between atoms: _498  and  _499
REMARK  209  A    between atoms: _504  and  _506
REMARK  210  A    between atoms: _506  and  _507
REMARK  211  A    between atoms: _506  and  _509
REMARK  212  A    between atoms: _509  and  _510
REMARK  213  A    between atoms: _513  and  _515
REMARK  214  A    between atoms: _515  and  _516
REMARK  215  A    between atoms: _515  and  _518
REMARK  216  A    between atoms: _518  and  _519
REMARK  217  A    between atoms: _522  and  _524
REMARK  218  A    between atoms: _524  and  _525
REMARK  219  A    between atoms: _527  and  _529
REMARK  220  A    between atoms: _529  and  _530
REMARK  221  A    between atoms: _529  and  _532
REMARK  222  A    between atoms: _532  and  _533
REMARK  223  A    between atoms: _533  and  _534
REMARK  224  A    between atoms: _534  and  _535
REMARK  225  A    between atoms: _544  and  _546
REMARK  226  A    between atoms: _546  and  _547
REMARK  227  A    between atoms: _546  and  _549
REMARK  228  A    between atoms: _549  and  _550
REMARK                            x       y       z     vdW  Elec       q    Type
REMARK                         _______ _______ _______ _____ _____    ______ ____
ROOT
ATOM      1  O   HOH     1      20.708  34.257  21.817  0.00  0.00    +0.000 OA
ENDROOT
TORSDOF 0
REMARK  Name = ../refined-set-2016/2qi4/2qi4_pocket.pdb
REMARK  228 active torsions:
REMARK  status: ('A' for Active; 'I' for Inactive)
REMARK    1  A    between atoms: _1  and  _3
REMARK    2  A    between atoms: _3  and  _4
REMARK    3  A    between atoms: _3  and  _6
REMARK    4  A    between atoms: _6  and  _7
REMARK    5  A    between atoms: _7  and  _8
REMARK    6  A    between atoms: _8  and  _9
REMARK    7  A    between atoms: _18  and  _20
REMARK    8  A    between atoms: _20  and  _21
REMARK    9  A    between atoms: _20  and  _23
REMARK   10  A    between atoms: _23  and  _24
REMARK   11  A    between atoms: _27  and  _29
REMARK   12  A    between atoms: _29  and  _30
REMARK   13  A    between atoms: _29  and  _32
REMARK   14  A    between atoms: _32  and  _33
REMARK   15  A    between atoms: _36  and  _38
REMARK   16  A    between atoms: _38  and  _39
REMARK   17  A    between atoms: _38  and  _41
REMARK   18  A    between atoms: _41  and  _42
REMARK   19  A    between atoms: _45  and  _47
REMARK   20  A    between atoms: _47  and  _48
REMARK   21  A    between atoms: _47  and  _50
REMARK   22  A    between atoms: _50  and  _51
REMARK   23  A    between atoms: _54  and  _56
REMARK   24  A    between atoms: _56  and  _57
REMARK   25  A    between atoms: _59  and  _61
REMARK   26  A    between atoms: _61  and  _62
REMARK   27  A    between atoms: _65  and  _67
REMARK   28  A    between atoms: _67  and  _68
REMARK   29  A    between atoms: _67  and  _70
REMARK   30  A    between atoms: _70  and  _71
REMARK   31  A    between atoms: _74  and  _76
REMARK   32  A    between atoms: _76  and  _77
REMARK   33  A    between atoms: _76  and  _79
REMARK   34  A    between atoms: _79  and  _80
REMARK   35  A    between atoms: _83  and  _85
REMARK   36  A    between atoms: _85  and  _86
REMARK   37  A    between atoms: _85  and  _88
REMARK   38  A    between atoms: _88  and  _89
REMARK   39  A    between atoms: _92  and  _94
REMARK   40  A    between atoms: _94  and  _95
REMARK   41  A    between atoms: _94  and  _97
REMARK   42  A    between atoms: _100  and  _102
REMARK   43  A    between atoms: _102  and  _103
REMARK   44  A    between atoms: _102  and  _105
REMARK   45  A    between atoms: _105  and  _106
REMARK   46  A    between atoms: _106  and  _107
REMARK   47  A    between atoms: _107  and  _108
REMARK   48  A    between atoms: _108  and  _109
REMARK   49  A    between atoms: _113  and  _115
REMARK   50  A    between atoms: _115  and  _116
REMARK   51  A    between atoms: _115  and  _118
REMARK   52  A    between atoms: _118  and  _119
REMARK   53  A    between atoms: _119  and  _120
REMARK   54  A    between atoms: _122  and  _124
REMARK   55  A    between atoms: _124  and  _125
REMARK   56  A    between atoms: _124  and  _127
REMARK   57  A    between atoms: _127  and  _128
REMARK   58  A    between atoms: _131  and  _133
REMARK   59  A    between atoms: _133  and  _134
REMARK   60  A    between atoms: _136  and  _138
REMARK   61  A    between atoms: _138  and  _139
REMARK   62  A    between atoms: _141  and  _143
REMARK   63  A    between atoms: _143  and  _144
REMARK   64  A    between atoms: _143  and  _146
REMARK   65  A    between atoms: _146  and  _147
REMARK   66  A    between atoms: _150  and  _152
REMARK   67  A    between atoms: _152  and  _153
REMARK   68  A    between atoms: _155  and  _157
REMARK   69  A    between atoms: _157  and  _158
REMARK   70  A    between atoms: _160  and  _162
REMARK   71  A    between atoms: _162  and  _163
REMARK   72  A    between atoms: _162  and  _165
REMARK   73  A    between atoms: _165  and  _166
REMARK   74  A    between atoms: _169  and  _171
REMARK   75  A    between atoms: _171  and  _172
REMARK   76  A    between atoms: _171  and  _174
REMARK   77  A    between atoms: _177  and  _179
REMARK   78  A    between atoms: _179  and  _180
REMARK   79  A    between atoms: _179  and  _182
REMARK   80  A    between atoms: _182  and  _183
REMARK   81  A    between atoms: _186  and  _188
REMARK   82  A    between atoms: _188  and  _189
REMARK   83  A    between atoms: _188  and  _191
REMARK   84  A    between atoms: _191  and  _192
REMARK   85  A    between atoms: _196  and  _197
REMARK   86  A    between atoms: _202  and  _204
REMARK   87  A    between atoms: _204  and  _205
REMARK   88  A    between atoms: _204  and  _207
REMARK   89  A    between atoms: _210  and  _212
REMARK   90  A    between atoms: _212  and  _213
REMARK   91  A    between atoms: _212  and  _215
REMARK   92  A    between atoms: _215  and  _216
REMARK   93  A    between atoms: _221  and  _223
REMARK   94  A    between atoms: _223  and  _224
REMARK   95  A    between atoms: _223  and  _226
REMARK   96  A    between atoms: _226  and  _227
REMARK   97  A    between atoms: _230  and  _232
REMARK   98  A    between atoms: _232  and  _233
REMARK   99  A    between atoms: _232  and  _235
REMARK  100  A    between atoms: _235  and  _236
REMARK  101  A    between atoms: _239  and  _241
REMARK  102  A    between atoms: _241  and  _242
REMARK  103  A    between atoms: _244  and  _246
REMARK  104  A    between atoms: _246  and  _247
REMARK  105  A    between atoms: _246  and  _249
REMARK  106  A    between atoms: _249  and  _250
REMARK  107  A    between atoms: _250  and  _251
REMARK  108  A    between atoms: _251  and  _252
REMARK  109  A    between atoms: _261  and  _263
REMARK  110  A    between atoms: _263  and  _264
REMARK  111  A    between atoms: _263  and  _266
REMARK  112  A    between atoms: _266  and  _267
REMARK  113  A    between atoms: _272  and  _274
REMARK  114  A    between atoms: _274  and  _275
REMARK  115  A    between atoms: _274  and  _277
REMARK  116  A    between atoms: _277  and  _278
REMARK  117  A    between atoms: _278  and  _279
REMARK  118  A    between atoms: _279  and  _280
REMARK  119  A    between atoms: _289  and  _291
REMARK  120  A    between atoms: _291  and  _292
REMARK  121  A    between atoms: _291  and  _294
REMARK  122  A    between atoms: _294  and  _295
REMARK  123  A    between atoms: _298  and  _300
REMARK  124  A    between atoms: _300  and  _301
REMARK  125  A    between atoms: _300  and  _303
REMARK  126  A    between atoms: _303  and  _304
REMARK  127  A    between atoms: _307  and  _309
REMARK  128  A    between atoms: _309  and  _310
REMARK  129  A    between atoms: _309  and  _312
REMARK  130  A    between atoms: _312  and  _313
REMARK  131  A    between atoms: _316  and  _318
REMARK  132  A    between atoms: _318  and  _319
REMARK  133  A    between atoms: _318  and  _321
REMARK  134  A    between atoms: _321  and  _322
REMARK  135  A    between atoms: _325  and  _327
REMARK  136  A    between atoms: _327  and  _328
REMARK  137  A    between atoms: _330  and  _332
REMARK  138  A    between atoms: _332  and  _333
REMARK  139  A    between atoms: _336  and  _338
REMARK  140  A    between atoms: _338  and  _339
REMARK  141  A    between atoms: _338  and  _341
REMARK  142  A    between atoms: _341  and  _342
REMARK  143  A    between atoms: _345  and  _347
REMARK  144  A    between atoms: _347  and  _348
REMARK  145  A    between atoms: _347  and  _350
REMARK  146  A    between atoms: _350  and  _351
REMARK  147  A    between atoms: _354  and  _356
REMARK  148  A    between atoms: _356  and  _357
REMARK  149  A    between atoms: _356  and  _359
REMARK  150  A    between atoms: _359  and  _360
REMARK  151  A    between atoms: _363  and  _365
REMARK  152  A    between atoms: _365  and  _366
REMARK  153  A    between atoms: _365  and  _368
REMARK  154  A    between atoms: _371  and  _373
REMARK  155  A    between atoms: _373  and  _374
REMARK  156  A    between atoms: _373  and  _376
REMARK  157  A    between atoms: _376  and  _377
REMARK  158  A    between atoms: _377  and  _378
REMARK  159  A    between atoms: _378  and  _379
REMARK  160  A    between atoms: _379  and  _380
REMARK  161  A    between atoms: _384  and  _386
REMARK  162  A    between atoms: _386  and  _387
REMARK  163  A    between atoms: _386  and  _389
REMARK  164  A    between atoms: _389  and  _390
REMARK  165  A    between atoms: _390  and  _391
REMARK  166  A    between atoms: _393  and  _395
REMARK  167  A    between atoms: _395  and  _396
REMARK  168  A    between atoms: _395  and  _398
REMARK  169  A    between atoms: _398  and  _399
REMARK  170  A    between atoms: _402  and  _404
REMARK  171  A    between atoms: _404  and  _405
REMARK  172  A    between atoms: _407  and  _409
REMARK  173  A    between atoms: _409  and  _410
REMARK  174  A    between atoms: _412  and  _414
REMARK  175  A    between atoms: _414  and  _415
REMARK  176  A    between atoms: _414  and  _417
REMARK  177  A    between atoms: _417  and  _418
REMARK  178  A    between atoms: _421  and  _423
REMARK  179  A    between atoms: _423  and  _424
REMARK  180  A    between atoms: _426  and  _428
REMARK  181  A    between atoms: _428  and  _429
REMARK  182  A    between atoms: _431  and  _433
REMARK  183  A    between atoms: _433  and  _434
REMARK  184  A    between atoms: _433  and  _436
REMARK  185  A    between atoms: _436  and  _437
REMARK  186  A    between atoms: _443  and  _445
REMARK  187  A    between atoms: _445  and  _446
REMARK  188  A    between atoms: _445  and  _448
REMARK  189  A    between atoms: _448  and  _449
REMARK  190  A    between atoms: _452  and  _454
REMARK  191  A    between atoms: _454  and  _455
REMARK  192  A    between atoms: _454  and  _457
REMARK  193  A    between atoms: _460  and  _462
REMARK  194  A    between atoms: _462  and  _463
REMARK  195  A    between atoms: _462  and  _465
REMARK  196  A    between atoms: _465  and  _466
REMARK  197  A    between atoms: _469  and  _471
REMARK  198  A    between atoms: _471  and  _472
REMARK  199  A    between atoms: _471  and  _474
REMARK  200  A    between atoms: _474  and  _475
REMARK  201  A    between atoms: _479  and  _480
REMARK  202  A    between atoms: _485  and  _487
REMARK  203  A    between atoms: _487  and  _488
REMARK  204  A    between atoms: _487  and  _490
REMARK  205  A    between atoms: _493  and  _495
REMARK  206  A    between atoms: _495  and  _496
REMARK  207  A    between atoms: _495  and  _498
REMARK  208  A    between atoms: _498  and  _499
REMARK  209  A    between atoms: _504  and  _506
REMARK  210  A    between atoms: _506  and  _507
REMARK  211  A    between atoms: _506  and  _509
REMARK  212  A    between atoms: _509  and  _510
REMARK  213  A    between atoms: _513  and  _515
REMARK  214  A    between atoms: _515  and  _516
REMARK  215  A    between atoms: _515  and  _518
REMARK  216  A    between atoms: _518  and  _519
REMARK  217  A    between atoms: _522  and  _524
REMARK  218  A    between atoms: _524  and  _525
REMARK  219  A    between atoms: _527  and  _529
REMARK  220  A    between atoms: _529  and  _530
REMARK  221  A    between atoms: _529  and  _532
REMARK  222  A    between atoms: _532  and  _533
REMARK  223  A    between atoms: _533  and  _534
REMARK  224  A    between atoms: _534  and  _535
REMARK  225  A    between atoms: _544  and  _546
REMARK  226  A    between atoms: _546  and  _547
REMARK  227  A    between atoms: _546  and  _549
REMARK  228  A    between atoms: _549  and  _550
REMARK                            x       y       z     vdW  Elec       q    Type
REMARK                         _______ _______ _______ _____ _____    ______ ____
ROOT
ATOM      1  O   HOH     1      20.151  32.367  23.728  0.00  0.00    +0.000 OA
ENDROOT
TORSDOF 0
REMARK  Name = ../refined-set-2016/2qi4/2qi4_pocket.pdb
REMARK  228 active torsions:
REMARK  status: ('A' for Active; 'I' for Inactive)
REMARK    1  A    between atoms: _1  and  _3
REMARK    2  A    between atoms: _3  and  _4
REMARK    3  A    between atoms: _3  and  _6
REMARK    4  A    between atoms: _6  and  _7
REMARK    5  A    between atoms: _7  and  _8
REMARK    6  A    between atoms: _8  and  _9
REMARK    7  A    between atoms: _18  and  _20
REMARK    8  A    between atoms: _20  and  _21
REMARK    9  A    between atoms: _20  and  _23
REMARK   10  A    between atoms: _23  and  _24
REMARK   11  A    between atoms: _27  and  _29
REMARK   12  A    between atoms: _29  and  _30
REMARK   13  A    between atoms: _29  and  _32
REMARK   14  A    between atoms: _32  and  _33
REMARK   15  A    between atoms: _36  and  _38
REMARK   16  A    between atoms: _38  and  _39
REMARK   17  A    between atoms: _38  and  _41
REMARK   18  A    between atoms: _41  and  _42
REMARK   19  A    between atoms: _45  and  _47
REMARK   20  A    between atoms: _47  and  _48
REMARK   21  A    between atoms: _47  and  _50
REMARK   22  A    between atoms: _50  and  _51
REMARK   23  A    between atoms: _54  and  _56
REMARK   24  A    between atoms: _56  and  _57
REMARK   25  A    between atoms: _59  and  _61
REMARK   26  A    between atoms: _61  and  _62
REMARK   27  A    between atoms: _65  and  _67
REMARK   28  A    between atoms: _67  and  _68
REMARK   29  A    between atoms: _67  and  _70
REMARK   30  A    between atoms: _70  and  _71
REMARK   31  A    between atoms: _74  and  _76
REMARK   32  A    between atoms: _76  and  _77
REMARK   33  A    between atoms: _76  and  _79
REMARK   34  A    between atoms: _79  and  _80
REMARK   35  A    between atoms: _83  and  _85
REMARK   36  A    between atoms: _85  and  _86
REMARK   37  A    between atoms: _85  and  _88
REMARK   38  A    between atoms: _88  and  _89
REMARK   39  A    between atoms: _92  and  _94
REMARK   40  A    between atoms: _94  and  _95
REMARK   41  A    between atoms: _94  and  _97
REMARK   42  A    between atoms: _100  and  _102
REMARK   43  A    between atoms: _102  and  _103
REMARK   44  A    between atoms: _102  and  _105
REMARK   45  A    between atoms: _105  and  _106
REMARK   46  A    between atoms: _106  and  _107
REMARK   47  A    between atoms: _107  and  _108
REMARK   48  A    between atoms: _108  and  _109
REMARK   49  A    between atoms: _113  and  _115
REMARK   50  A    between atoms: _115  and  _116
REMARK   51  A    between atoms: _115  and  _118
REMARK   52  A    between atoms: _118  and  _119
REMARK   53  A    between atoms: _119  and  _120
REMARK   54  A    between atoms: _122  and  _124
REMARK   55  A    between atoms: _124  and  _125
REMARK   56  A    between atoms: _124  and  _127
REMARK   57  A    between atoms: _127  and  _128
REMARK   58  A    between atoms: _131  and  _133
REMARK   59  A    between atoms: _133  and  _134
REMARK   60  A    between atoms: _136  and  _138
REMARK   61  A    between atoms: _138  and  _139
REMARK   62  A    between atoms: _141  and  _143
REMARK   63  A    between atoms: _143  and  _144
REMARK   64  A    between atoms: _143  and  _146
REMARK   65  A    between atoms: _146  and  _147
REMARK   66  A    between atoms: _150  and  _152
REMARK   67  A    between atoms: _152  and  _153
REMARK   68  A    between atoms: _155  and  _157
REMARK   69  A    between atoms: _157  and  _158
REMARK   70  A    between atoms: _160  and  _162
REMARK   71  A    between atoms: _162  and  _163
REMARK   72  A    between atoms: _162  and  _165
REMARK   73  A    between atoms: _165  and  _166
REMARK   74  A    between atoms: _169  and  _171
REMARK   75  A    between atoms: _171  and  _172
REMARK   76  A    between atoms: _171  and  _174
REMARK   77  A    between atoms: _177  and  _179
REMARK   78  A    between atoms: _179  and  _180
REMARK   79  A    between atoms: _179  and  _182
REMARK   80  A    between atoms: _182  and  _183
REMARK   81  A    between atoms: _186  and  _188
REMARK   82  A    between atoms: _188  and  _189
REMARK   83  A    between atoms: _188  and  _191
REMARK   84  A    between atoms: _191  and  _192
REMARK   85  A    between atoms: _196  and  _197
REMARK   86  A    between atoms: _202  and  _204
REMARK   87  A    between atoms: _204  and  _205
REMARK   88  A    between atoms: _204  and  _207
REMARK   89  A    between atoms: _210  and  _212
REMARK   90  A    between atoms: _212  and  _213
REMARK   91  A    between atoms: _212  and  _215
REMARK   92  A    between atoms: _215  and  _216
REMARK   93  A    between atoms: _221  and  _223
REMARK   94  A    between atoms: _223  and  _224
REMARK   95  A    between atoms: _223  and  _226
REMARK   96  A    between atoms: _226  and  _227
REMARK   97  A    between atoms: _230  and  _232
REMARK   98  A    between atoms: _232  and  _233
REMARK   99  A    between atoms: _232  and  _235
REMARK  100  A    between atoms: _235  and  _236
REMARK  101  A    between atoms: _239  and  _241
REMARK  102  A    between atoms: _241  and  _242
REMARK  103  A    between atoms: _244  and  _246
REMARK  104  A    between atoms: _246  and  _247
REMARK  105  A    between atoms: _246  and  _249
REMARK  106  A    between atoms: _249  and  _250
REMARK  107  A    between atoms: _250  and  _251
REMARK  108  A    between atoms: _251  and  _252
REMARK  109  A    between atoms: _261  and  _263
REMARK  110  A    between atoms: _263  and  _264
REMARK  111  A    between atoms: _263  and  _266
REMARK  112  A    between atoms: _266  and  _267
REMARK  113  A    between atoms: _272  and  _274
REMARK  114  A    between atoms: _274  and  _275
REMARK  115  A    between atoms: _274  and  _277
REMARK  116  A    between atoms: _277  and  _278
REMARK  117  A    between atoms: _278  and  _279
REMARK  118  A    between atoms: _279  and  _280
REMARK  119  A    between atoms: _289  and  _291
REMARK  120  A    between atoms: _291  and  _292
REMARK  121  A    between atoms: _291  and  _294
REMARK  122  A    between atoms: _294  and  _295
REMARK  123  A    between atoms: _298  and  _300
REMARK  124  A    between atoms: _300  and  _301
REMARK  125  A    between atoms: _300  and  _303
REMARK  126  A    between atoms: _303  and  _304
REMARK  127  A    between atoms: _307  and  _309
REMARK  128  A    between atoms: _309  and  _310
REMARK  129  A    between atoms: _309  and  _312
REMARK  130  A    between atoms: _312  and  _313
REMARK  131  A    between atoms: _316  and  _318
REMARK  132  A    between atoms: _318  and  _319
REMARK  133  A    between atoms: _318  and  _321
REMARK  134  A    between atoms: _321  and  _322
REMARK  135  A    between atoms: _325  and  _327
REMARK  136  A    between atoms: _327  and  _328
REMARK  137  A    between atoms: _330  and  _332
REMARK  138  A    between atoms: _332  and  _333
REMARK  139  A    between atoms: _336  and  _338
REMARK  140  A    between atoms: _338  and  _339
REMARK  141  A    between atoms: _338  and  _341
REMARK  142  A    between atoms: _341  and  _342
REMARK  143  A    between atoms: _345  and  _347
REMARK  144  A    between atoms: _347  and  _348
REMARK  145  A    between atoms: _347  and  _350
REMARK  146  A    between atoms: _350  and  _351
REMARK  147  A    between atoms: _354  and  _356
REMARK  148  A    between atoms: _356  and  _357
REMARK  149  A    between atoms: _356  and  _359
REMARK  150  A    between atoms: _359  and  _360
REMARK  151  A    between atoms: _363  and  _365
REMARK  152  A    between atoms: _365  and  _366
REMARK  153  A    between atoms: _365  and  _368
REMARK  154  A    between atoms: _371  and  _373
REMARK  155  A    between atoms: _373  and  _374
REMARK  156  A    between atoms: _373  and  _376
REMARK  157  A    between atoms: _376  and  _377
REMARK  158  A    between atoms: _377  and  _378
REMARK  159  A    between atoms: _378  and  _379
REMARK  160  A    between atoms: _379  and  _380
REMARK  161  A    between atoms: _384  and  _386
REMARK  162  A    between atoms: _386  and  _387
REMARK  163  A    between atoms: _386  and  _389
REMARK  164  A    between atoms: _389  and  _390
REMARK  165  A    between atoms: _390  and  _391
REMARK  166  A    between atoms: _393  and  _395
REMARK  167  A    between atoms: _395  and  _396
REMARK  168  A    between atoms: _395  and  _398
REMARK  169  A    between atoms: _398  and  _399
REMARK  170  A    between atoms: _402  and  _404
REMARK  171  A    between atoms: _404  and  _405
REMARK  172  A    between atoms: _407  and  _409
REMARK  173  A    between atoms: _409  and  _410
REMARK  174  A    between atoms: _412  and  _414
REMARK  175  A    between atoms: _414  and  _415
REMARK  176  A    between atoms: _414  and  _417
REMARK  177  A    between atoms: _417  and  _418
REMARK  178  A    between atoms: _421  and  _423
REMARK  179  A    between atoms: _423  and  _424
REMARK  180  A    between atoms: _426  and  _428
REMARK  181  A    between atoms: _428  and  _429
REMARK  182  A    between atoms: _431  and  _433
REMARK  183  A    between atoms: _433  and  _434
REMARK  184  A    between atoms: _433  and  _436
REMARK  185  A    between atoms: _436  and  _437
REMARK  186  A    between atoms: _443  and  _445
REMARK  187  A    between atoms: _445  and  _446
REMARK  188  A    between atoms: _445  and  _448
REMARK  189  A    between atoms: _448  and  _449
REMARK  190  A    between atoms: _452  and  _454
REMARK  191  A    between atoms: _454  and  _455
REMARK  192  A    between atoms: _454  and  _457
REMARK  193  A    between atoms: _460  and  _462
REMARK  194  A    between atoms: _462  and  _463
REMARK  195  A    between atoms: _462  and  _465
REMARK  196  A    between atoms: _465  and  _466
REMARK  197  A    between atoms: _469  and  _471
REMARK  198  A    between atoms: _471  and  _472
REMARK  199  A    between atoms: _471  and  _474
REMARK  200  A    between atoms: _474  and  _475
REMARK  201  A    between atoms: _479  and  _480
REMARK  202  A    between atoms: _485  and  _487
REMARK  203  A    between atoms: _487  and  _488
REMARK  204  A    between atoms: _487  and  _490
REMARK  205  A    between atoms: _493  and  _495
REMARK  206  A    between atoms: _495  and  _496
REMARK  207  A    between atoms: _495  and  _498
REMARK  208  A    between atoms: _498  and  _499
REMARK  209  A    between atoms: _504  and  _506
REMARK  210  A    between atoms: _506  and  _507
REMARK  211  A    between atoms: _506  and  _509
REMARK  212  A    between atoms: _509  and  _510
REMARK  213  A    between atoms: _513  and  _515
REMARK  214  A    between atoms: _515  and  _516
REMARK  215  A    between atoms: _515  and  _518
REMARK  216  A    between atoms: _518  and  _519
REMARK  217  A    between atoms: _522  and  _524
REMARK  218  A    between atoms: _524  and  _525
REMARK  219  A    between atoms: _527  and  _529
REMARK  220  A    between atoms: _529  and  _530
REMARK  221  A    between atoms: _529  and  _532
REMARK  222  A    between atoms: _532  and  _533
REMARK  223  A    between atoms: _533  and  _534
REMARK  224  A    between atoms: _534  and  _535
REMARK  225  A    between atoms: _544  and  _546
REMARK  226  A    between atoms: _546  and  _547
REMARK  227  A    between atoms: _546  and  _549
REMARK  228  A    between atoms: _549  and  _550
REMARK                            x       y       z     vdW  Elec       q    Type
REMARK                         _______ _______ _______ _____ _____    ______ ____
ROOT
ATOM      1  O   HOH     1      18.533  34.597  19.490  0.00  0.00    +0.000 OA
ENDROOT
TORSDOF 0
REMARK  Name = ../refined-set-2016/2qi4/2qi4_pocket.pdb
REMARK  228 active torsions:
REMARK  status: ('A' for Active; 'I' for Inactive)
REMARK    1  A    between atoms: _1  and  _3
REMARK    2  A    between atoms: _3  and  _4
REMARK    3  A    between atoms: _3  and  _6
REMARK    4  A    between atoms: _6  and  _7
REMARK    5  A    between atoms: _7  and  _8
REMARK    6  A    between atoms: _8  and  _9
REMARK    7  A    between atoms: _18  and  _20
REMARK    8  A    between atoms: _20  and  _21
REMARK    9  A    between atoms: _20  and  _23
REMARK   10  A    between atoms: _23  and  _24
REMARK   11  A    between atoms: _27  and  _29
REMARK   12  A    between atoms: _29  and  _30
REMARK   13  A    between atoms: _29  and  _32
REMARK   14  A    between atoms: _32  and  _33
REMARK   15  A    between atoms: _36  and  _38
REMARK   16  A    between atoms: _38  and  _39
REMARK   17  A    between atoms: _38  and  _41
REMARK   18  A    between atoms: _41  and  _42
REMARK   19  A    between atoms: _45  and  _47
REMARK   20  A    between atoms: _47  and  _48
REMARK   21  A    between atoms: _47  and  _50
REMARK   22  A    between atoms: _50  and  _51
REMARK   23  A    between atoms: _54  and  _56
REMARK   24  A    between atoms: _56  and  _57
REMARK   25  A    between atoms: _59  and  _61
REMARK   26  A    between atoms: _61  and  _62
REMARK   27  A    between atoms: _65  and  _67
REMARK   28  A    between atoms: _67  and  _68
REMARK   29  A    between atoms: _67  and  _70
REMARK   30  A    between atoms: _70  and  _71
REMARK   31  A    between atoms: _74  and  _76
REMARK   32  A    between atoms: _76  and  _77
REMARK   33  A    between atoms: _76  and  _79
REMARK   34  A    between atoms: _79  and  _80
REMARK   35  A    between atoms: _83  and  _85
REMARK   36  A    between atoms: _85  and  _86
REMARK   37  A    between atoms: _85  and  _88
REMARK   38  A    between atoms: _88  and  _89
REMARK   39  A    between atoms: _92  and  _94
REMARK   40  A    between atoms: _94  and  _95
REMARK   41  A    between atoms: _94  and  _97
REMARK   42  A    between atoms: _100  and  _102
REMARK   43  A    between atoms: _102  and  _103
REMARK   44  A    between atoms: _102  and  _105
REMARK   45  A    between atoms: _105  and  _106
REMARK   46  A    between atoms: _106  and  _107
REMARK   47  A    between atoms: _107  and  _108
REMARK   48  A    between atoms: _108  and  _109
REMARK   49  A    between atoms: _113  and  _115
REMARK   50  A    between atoms: _115  and  _116
REMARK   51  A    between atoms: _115  and  _118
REMARK   52  A    between atoms: _118  and  _119
REMARK   53  A    between atoms: _119  and  _120
REMARK   54  A    between atoms: _122  and  _124
REMARK   55  A    between atoms: _124  and  _125
REMARK   56  A    between atoms: _124  and  _127
REMARK   57  A    between atoms: _127  and  _128
REMARK   58  A    between atoms: _131  and  _133
REMARK   59  A    between atoms: _133  and  _134
REMARK   60  A    between atoms: _136  and  _138
REMARK   61  A    between atoms: _138  and  _139
REMARK   62  A    between atoms: _141  and  _143
REMARK   63  A    between atoms: _143  and  _144
REMARK   64  A    between atoms: _143  and  _146
REMARK   65  A    between atoms: _146  and  _147
REMARK   66  A    between atoms: _150  and  _152
REMARK   67  A    between atoms: _152  and  _153
REMARK   68  A    between atoms: _155  and  _157
REMARK   69  A    between atoms: _157  and  _158
REMARK   70  A    between atoms: _160  and  _162
REMARK   71  A    between atoms: _162  and  _163
REMARK   72  A    between atoms: _162  and  _165
REMARK   73  A    between atoms: _165  and  _166
REMARK   74  A    between atoms: _169  and  _171
REMARK   75  A    between atoms: _171  and  _172
REMARK   76  A    between atoms: _171  and  _174
REMARK   77  A    between atoms: _177  and  _179
REMARK   78  A    between atoms: _179  and  _180
REMARK   79  A    between atoms: _179  and  _182
REMARK   80  A    between atoms: _182  and  _183
REMARK   81  A    between atoms: _186  and  _188
REMARK   82  A    between atoms: _188  and  _189
REMARK   83  A    between atoms: _188  and  _191
REMARK   84  A    between atoms: _191  and  _192
REMARK   85  A    between atoms: _196  and  _197
REMARK   86  A    between atoms: _202  and  _204
REMARK   87  A    between atoms: _204  and  _205
REMARK   88  A    between atoms: _204  and  _207
REMARK   89  A    between atoms: _210  and  _212
REMARK   90  A    between atoms: _212  and  _213
REMARK   91  A    between atoms: _212  and  _215
REMARK   92  A    between atoms: _215  and  _216
REMARK   93  A    between atoms: _221  and  _223
REMARK   94  A    between atoms: _223  and  _224
REMARK   95  A    between atoms: _223  and  _226
REMARK   96  A    between atoms: _226  and  _227
REMARK   97  A    between atoms: _230  and  _232
REMARK   98  A    between atoms: _232  and  _233
REMARK   99  A    between atoms: _232  and  _235
REMARK  100  A    between atoms: _235  and  _236
REMARK  101  A    between atoms: _239  and  _241
REMARK  102  A    between atoms: _241  and  _242
REMARK  103  A    between atoms: _244  and  _246
REMARK  104  A    between atoms: _246  and  _247
REMARK  105  A    between atoms: _246  and  _249
REMARK  106  A    between atoms: _249  and  _250
REMARK  107  A    between atoms: _250  and  _251
REMARK  108  A    between atoms: _251  and  _252
REMARK  109  A    between atoms: _261  and  _263
REMARK  110  A    between atoms: _263  and  _264
REMARK  111  A    between atoms: _263  and  _266
REMARK  112  A    between atoms: _266  and  _267
REMARK  113  A    between atoms: _272  and  _274
REMARK  114  A    between atoms: _274  and  _275
REMARK  115  A    between atoms: _274  and  _277
REMARK  116  A    between atoms: _277  and  _278
REMARK  117  A    between atoms: _278  and  _279
REMARK  118  A    between atoms: _279  and  _280
REMARK  119  A    between atoms: _289  and  _291
REMARK  120  A    between atoms: _291  and  _292
REMARK  121  A    between atoms: _291  and  _294
REMARK  122  A    between atoms: _294  and  _295
REMARK  123  A    between atoms: _298  and  _300
REMARK  124  A    between atoms: _300  and  _301
REMARK  125  A    between atoms: _300  and  _303
REMARK  126  A    between atoms: _303  and  _304
REMARK  127  A    between atoms: _307  and  _309
REMARK  128  A    between atoms: _309  and  _310
REMARK  129  A    between atoms: _309  and  _312
REMARK  130  A    between atoms: _312  and  _313
REMARK  131  A    between atoms: _316  and  _318
REMARK  132  A    between atoms: _318  and  _319
REMARK  133  A    between atoms: _318  and  _321
REMARK  134  A    between atoms: _321  and  _322
REMARK  135  A    between atoms: _325  and  _327
REMARK  136  A    between atoms: _327  and  _328
REMARK  137  A    between atoms: _330  and  _332
REMARK  138  A    between atoms: _332  and  _333
REMARK  139  A    between atoms: _336  and  _338
REMARK  140  A    between atoms: _338  and  _339
REMARK  141  A    between atoms: _338  and  _341
REMARK  142  A    between atoms: _341  and  _342
REMARK  143  A    between atoms: _345  and  _347
REMARK  144  A    between atoms: _347  and  _348
REMARK  145  A    between atoms: _347  and  _350
REMARK  146  A    between atoms: _350  and  _351
REMARK  147  A    between atoms: _354  and  _356
REMARK  148  A    between atoms: _356  and  _357
REMARK  149  A    between atoms: _356  and  _359
REMARK  150  A    between atoms: _359  and  _360
REMARK  151  A    between atoms: _363  and  _365
REMARK  152  A    between atoms: _365  and  _366
REMARK  153  A    between atoms: _365  and  _368
REMARK  154  A    between atoms: _371  and  _373
REMARK  155  A    between atoms: _373  and  _374
REMARK  156  A    between atoms: _373  and  _376
REMARK  157  A    between atoms: _376  and  _377
REMARK  158  A    between atoms: _377  and  _378
REMARK  159  A    between atoms: _378  and  _379
REMARK  160  A    between atoms: _379  and  _380
REMARK  161  A    between atoms: _384  and  _386
REMARK  162  A    between atoms: _386  and  _387
REMARK  163  A    between atoms: _386  and  _389
REMARK  164  A    between atoms: _389  and  _390
REMARK  165  A    between atoms: _390  and  _391
REMARK  166  A    between atoms: _393  and  _395
REMARK  167  A    between atoms: _395  and  _396
REMARK  168  A    between atoms: _395  and  _398
REMARK  169  A    between atoms: _398  and  _399
REMARK  170  A    between atoms: _402  and  _404
REMARK  171  A    between atoms: _404  and  _405
REMARK  172  A    between atoms: _407  and  _409
REMARK  173  A    between atoms: _409  and  _410
REMARK  174  A    between atoms: _412  and  _414
REMARK  175  A    between atoms: _414  and  _415
REMARK  176  A    between atoms: _414  and  _417
REMARK  177  A    between atoms: _417  and  _418
REMARK  178  A    between atoms: _421  and  _423
REMARK  179  A    between atoms: _423  and  _424
REMARK  180  A    between atoms: _426  and  _428
REMARK  181  A    between atoms: _428  and  _429
REMARK  182  A    between atoms: _431  and  _433
REMARK  183  A    between atoms: _433  and  _434
REMARK  184  A    between atoms: _433  and  _436
REMARK  185  A    between atoms: _436  and  _437
REMARK  186  A    between atoms: _443  and  _445
REMARK  187  A    between atoms: _445  and  _446
REMARK  188  A    between atoms: _445  and  _448
REMARK  189  A    between atoms: _448  and  _449
REMARK  190  A    between atoms: _452  and  _454
REMARK  191  A    between atoms: _454  and  _455
REMARK  192  A    between atoms: _454  and  _457
REMARK  193  A    between atoms: _460  and  _462
REMARK  194  A    between atoms: _462  and  _463
REMARK  195  A    between atoms: _462  and  _465
REMARK  196  A    between atoms: _465  and  _466
REMARK  197  A    between atoms: _469  and  _471
REMARK  198  A    between atoms: _471  and  _472
REMARK  199  A    between atoms: _471  and  _474
REMARK  200  A    between atoms: _474  and  _475
REMARK  201  A    between atoms: _479  and  _480
REMARK  202  A    between atoms: _485  and  _487
REMARK  203  A    between atoms: _487  and  _488
REMARK  204  A    between atoms: _487  and  _490
REMARK  205  A    between atoms: _493  and  _495
REMARK  206  A    between atoms: _495  and  _496
REMARK  207  A    between atoms: _495  and  _498
REMARK  208  A    between atoms: _498  and  _499
REMARK  209  A    between atoms: _504  and  _506
REMARK  210  A    between atoms: _506  and  _507
REMARK  211  A    between atoms: _506  and  _509
REMARK  212  A    between atoms: _509  and  _510
REMARK  213  A    between atoms: _513  and  _515
REMARK  214  A    between atoms: _515  and  _516
REMARK  215  A    between atoms: _515  and  _518
REMARK  216  A    between atoms: _518  and  _519
REMARK  217  A    between atoms: _522  and  _524
REMARK  218  A    between atoms: _524  and  _525
REMARK  219  A    between atoms: _527  and  _529
REMARK  220  A    between atoms: _529  and  _530
REMARK  221  A    between atoms: _529  and  _532
REMARK  222  A    between atoms: _532  and  _533
REMARK  223  A    between atoms: _533  and  _534
REMARK  224  A    between atoms: _534  and  _535
REMARK  225  A    between atoms: _544  and  _546
REMARK  226  A    between atoms: _546  and  _547
REMARK  227  A    between atoms: _546  and  _549
REMARK  228  A    between atoms: _549  and  _550
REMARK                            x       y       z     vdW  Elec       q    Type
REMARK                         _______ _______ _______ _____ _____    ______ ____
ROOT
ATOM      1  O   HOH     1       9.110  34.746  21.454  0.00  0.00    +0.000 OA
ENDROOT
TORSDOF 0
REMARK  Name = ../refined-set-2016/2qi4/2qi4_pocket.pdb
REMARK  228 active torsions:
REMARK  status: ('A' for Active; 'I' for Inactive)
REMARK    1  A    between atoms: _1  and  _3
REMARK    2  A    between atoms: _3  and  _4
REMARK    3  A    between atoms: _3  and  _6
REMARK    4  A    between atoms: _6  and  _7
REMARK    5  A    between atoms: _7  and  _8
REMARK    6  A    between atoms: _8  and  _9
REMARK    7  A    between atoms: _18  and  _20
REMARK    8  A    between atoms: _20  and  _21
REMARK    9  A    between atoms: _20  and  _23
REMARK   10  A    between atoms: _23  and  _24
REMARK   11  A    between atoms: _27  and  _29
REMARK   12  A    between atoms: _29  and  _30
REMARK   13  A    between atoms: _29  and  _32
REMARK   14  A    between atoms: _32  and  _33
REMARK   15  A    between atoms: _36  and  _38
REMARK   16  A    between atoms: _38  and  _39
REMARK   17  A    between atoms: _38  and  _41
REMARK   18  A    between atoms: _41  and  _42
REMARK   19  A    between atoms: _45  and  _47
REMARK   20  A    between atoms: _47  and  _48
REMARK   21  A    between atoms: _47  and  _50
REMARK   22  A    between atoms: _50  and  _51
REMARK   23  A    between atoms: _54  and  _56
REMARK   24  A    between atoms: _56  and  _57
REMARK   25  A    between atoms: _59  and  _61
REMARK   26  A    between atoms: _61  and  _62
REMARK   27  A    between atoms: _65  and  _67
REMARK   28  A    between atoms: _67  and  _68
REMARK   29  A    between atoms: _67  and  _70
REMARK   30  A    between atoms: _70  and  _71
REMARK   31  A    between atoms: _74  and  _76
REMARK   32  A    between atoms: _76  and  _77
REMARK   33  A    between atoms: _76  and  _79
REMARK   34  A    between atoms: _79  and  _80
REMARK   35  A    between atoms: _83  and  _85
REMARK   36  A    between atoms: _85  and  _86
REMARK   37  A    between atoms: _85  and  _88
REMARK   38  A    between atoms: _88  and  _89
REMARK   39  A    between atoms: _92  and  _94
REMARK   40  A    between atoms: _94  and  _95
REMARK   41  A    between atoms: _94  and  _97
REMARK   42  A    between atoms: _100  and  _102
REMARK   43  A    between atoms: _102  and  _103
REMARK   44  A    between atoms: _102  and  _105
REMARK   45  A    between atoms: _105  and  _106
REMARK   46  A    between atoms: _106  and  _107
REMARK   47  A    between atoms: _107  and  _108
REMARK   48  A    between atoms: _108  and  _109
REMARK   49  A    between atoms: _113  and  _115
REMARK   50  A    between atoms: _115  and  _116
REMARK   51  A    between atoms: _115  and  _118
REMARK   52  A    between atoms: _118  and  _119
REMARK   53  A    between atoms: _119  and  _120
REMARK   54  A    between atoms: _122  and  _124
REMARK   55  A    between atoms: _124  and  _125
REMARK   56  A    between atoms: _124  and  _127
REMARK   57  A    between atoms: _127  and  _128
REMARK   58  A    between atoms: _131  and  _133
REMARK   59  A    between atoms: _133  and  _134
REMARK   60  A    between atoms: _136  and  _138
REMARK   61  A    between atoms: _138  and  _139
REMARK   62  A    between atoms: _141  and  _143
REMARK   63  A    between atoms: _143  and  _144
REMARK   64  A    between atoms: _143  and  _146
REMARK   65  A    between atoms: _146  and  _147
REMARK   66  A    between atoms: _150  and  _152
REMARK   67  A    between atoms: _152  and  _153
REMARK   68  A    between atoms: _155  and  _157
REMARK   69  A    between atoms: _157  and  _158
REMARK   70  A    between atoms: _160  and  _162
REMARK   71  A    between atoms: _162  and  _163
REMARK   72  A    between atoms: _162  and  _165
REMARK   73  A    between atoms: _165  and  _166
REMARK   74  A    between atoms: _169  and  _171
REMARK   75  A    between atoms: _171  and  _172
REMARK   76  A    between atoms: _171  and  _174
REMARK   77  A    between atoms: _177  and  _179
REMARK   78  A    between atoms: _179  and  _180
REMARK   79  A    between atoms: _179  and  _182
REMARK   80  A    between atoms: _182  and  _183
REMARK   81  A    between atoms: _186  and  _188
REMARK   82  A    between atoms: _188  and  _189
REMARK   83  A    between atoms: _188  and  _191
REMARK   84  A    between atoms: _191  and  _192
REMARK   85  A    between atoms: _196  and  _197
REMARK   86  A    between atoms: _202  and  _204
REMARK   87  A    between atoms: _204  and  _205
REMARK   88  A    between atoms: _204  and  _207
REMARK   89  A    between atoms: _210  and  _212
REMARK   90  A    between atoms: _212  and  _213
REMARK   91  A    between atoms: _212  and  _215
REMARK   92  A    between atoms: _215  and  _216
REMARK   93  A    between atoms: _221  and  _223
REMARK   94  A    between atoms: _223  and  _224
REMARK   95  A    between atoms: _223  and  _226
REMARK   96  A    between atoms: _226  and  _227
REMARK   97  A    between atoms: _230  and  _232
REMARK   98  A    between atoms: _232  and  _233
REMARK   99  A    between atoms: _232  and  _235
REMARK  100  A    between atoms: _235  and  _236
REMARK  101  A    between atoms: _239  and  _241
REMARK  102  A    between atoms: _241  and  _242
REMARK  103  A    between atoms: _244  and  _246
REMARK  104  A    between atoms: _246  and  _247
REMARK  105  A    between atoms: _246  and  _249
REMARK  106  A    between atoms: _249  and  _250
REMARK  107  A    between atoms: _250  and  _251
REMARK  108  A    between atoms: _251  and  _252
REMARK  109  A    between atoms: _261  and  _263
REMARK  110  A    between atoms: _263  and  _264
REMARK  111  A    between atoms: _263  and  _266
REMARK  112  A    between atoms: _266  and  _267
REMARK  113  A    between atoms: _272  and  _274
REMARK  114  A    between atoms: _274  and  _275
REMARK  115  A    between atoms: _274  and  _277
REMARK  116  A    between atoms: _277  and  _278
REMARK  117  A    between atoms: _278  and  _279
REMARK  118  A    between atoms: _279  and  _280
REMARK  119  A    between atoms: _289  and  _291
REMARK  120  A    between atoms: _291  and  _292
REMARK  121  A    between atoms: _291  and  _294
REMARK  122  A    between atoms: _294  and  _295
REMARK  123  A    between atoms: _298  and  _300
REMARK  124  A    between atoms: _300  and  _301
REMARK  125  A    between atoms: _300  and  _303
REMARK  126  A    between atoms: _303  and  _304
REMARK  127  A    between atoms: _307  and  _309
REMARK  128  A    between atoms: _309  and  _310
REMARK  129  A    between atoms: _309  and  _312
REMARK  130  A    between atoms: _312  and  _313
REMARK  131  A    between atoms: _316  and  _318
REMARK  132  A    between atoms: _318  and  _319
REMARK  133  A    between atoms: _318  and  _321
REMARK  134  A    between atoms: _321  and  _322
REMARK  135  A    between atoms: _325  and  _327
REMARK  136  A    between atoms: _327  and  _328
REMARK  137  A    between atoms: _330  and  _332
REMARK  138  A    between atoms: _332  and  _333
REMARK  139  A    between atoms: _336  and  _338
REMARK  140  A    between atoms: _338  and  _339
REMARK  141  A    between atoms: _338  and  _341
REMARK  142  A    between atoms: _341  and  _342
REMARK  143  A    between atoms: _345  and  _347
REMARK  144  A    between atoms: _347  and  _348
REMARK  145  A    between atoms: _347  and  _350
REMARK  146  A    between atoms: _350  and  _351
REMARK  147  A    between atoms: _354  and  _356
REMARK  148  A    between atoms: _356  and  _357
REMARK  149  A    between atoms: _356  and  _359
REMARK  150  A    between atoms: _359  and  _360
REMARK  151  A    between atoms: _363  and  _365
REMARK  152  A    between atoms: _365  and  _366
REMARK  153  A    between atoms: _365  and  _368
REMARK  154  A    between atoms: _371  and  _373
REMARK  155  A    between atoms: _373  and  _374
REMARK  156  A    between atoms: _373  and  _376
REMARK  157  A    between atoms: _376  and  _377
REMARK  158  A    between atoms: _377  and  _378
REMARK  159  A    between atoms: _378  and  _379
REMARK  160  A    between atoms: _379  and  _380
REMARK  161  A    between atoms: _384  and  _386
REMARK  162  A    between atoms: _386  and  _387
REMARK  163  A    between atoms: _386  and  _389
REMARK  164  A    between atoms: _389  and  _390
REMARK  165  A    between atoms: _390  and  _391
REMARK  166  A    between atoms: _393  and  _395
REMARK  167  A    between atoms: _395  and  _396
REMARK  168  A    between atoms: _395  and  _398
REMARK  169  A    between atoms: _398  and  _399
REMARK  170  A    between atoms: _402  and  _404
REMARK  171  A    between atoms: _404  and  _405
REMARK  172  A    between atoms: _407  and  _409
REMARK  173  A    between atoms: _409  and  _410
REMARK  174  A    between atoms: _412  and  _414
REMARK  175  A    between atoms: _414  and  _415
REMARK  176  A    between atoms: _414  and  _417
REMARK  177  A    between atoms: _417  and  _418
REMARK  178  A    between atoms: _421  and  _423
REMARK  179  A    between atoms: _423  and  _424
REMARK  180  A    between atoms: _426  and  _428
REMARK  181  A    between atoms: _428  and  _429
REMARK  182  A    between atoms: _431  and  _433
REMARK  183  A    between atoms: _433  and  _434
REMARK  184  A    between atoms: _433  and  _436
REMARK  185  A    between atoms: _436  and  _437
REMARK  186  A    between atoms: _443  and  _445
REMARK  187  A    between atoms: _445  and  _446
REMARK  188  A    between atoms: _445  and  _448
REMARK  189  A    between atoms: _448  and  _449
REMARK  190  A    between atoms: _452  and  _454
REMARK  191  A    between atoms: _454  and  _455
REMARK  192  A    between atoms: _454  and  _457
REMARK  193  A    between atoms: _460  and  _462
REMARK  194  A    between atoms: _462  and  _463
REMARK  195  A    between atoms: _462  and  _465
REMARK  196  A    between atoms: _465  and  _466
REMARK  197  A    between atoms: _469  and  _471
REMARK  198  A    between atoms: _471  and  _472
REMARK  199  A    between atoms: _471  and  _474
REMARK  200  A    between atoms: _474  and  _475
REMARK  201  A    between atoms: _479  and  _480
REMARK  202  A    between atoms: _485  and  _487
REMARK  203  A    between atoms: _487  and  _488
REMARK  204  A    between atoms: _487  and  _490
REMARK  205  A    between atoms: _493  and  _495
REMARK  206  A    between atoms: _495  and  _496
REMARK  207  A    between atoms: _495  and  _498
REMARK  208  A    between atoms: _498  and  _499
REMARK  209  A    between atoms: _504  and  _506
REMARK  210  A    between atoms: _506  and  _507
REMARK  211  A    between atoms: _506  and  _509
REMARK  212  A    between atoms: _509  and  _510
REMARK  213  A    between atoms: _513  and  _515
REMARK  214  A    between atoms: _515  and  _516
REMARK  215  A    between atoms: _515  and  _518
REMARK  216  A    between atoms: _518  and  _519
REMARK  217  A    between atoms: _522  and  _524
REMARK  218  A    between atoms: _524  and  _525
REMARK  219  A    between atoms: _527  and  _529
REMARK  220  A    between atoms: _529  and  _530
REMARK  221  A    between atoms: _529  and  _532
REMARK  222  A    between atoms: _532  and  _533
REMARK  223  A    between atoms: _533  and  _534
REMARK  224  A    between atoms: _534  and  _535
REMARK  225  A    between atoms: _544  and  _546
REMARK  226  A    between atoms: _546  and  _547
REMARK  227  A    between atoms: _546  and  _549
REMARK  228  A    between atoms: _549  and  _550
REMARK                            x       y       z     vdW  Elec       q    Type
REMARK                         _______ _______ _______ _____ _____    ______ ____
ROOT
ATOM      1  O   HOH     1      17.617  40.446  16.274  0.00  0.00    +0.000 OA
ENDROOT
TORSDOF 0
REMARK  Name = ../refined-set-2016/2qi4/2qi4_pocket.pdb
REMARK  228 active torsions:
REMARK  status: ('A' for Active; 'I' for Inactive)
REMARK    1  A    between atoms: _1  and  _3
REMARK    2  A    between atoms: _3  and  _4
REMARK    3  A    between atoms: _3  and  _6
REMARK    4  A    between atoms: _6  and  _7
REMARK    5  A    between atoms: _7  and  _8
REMARK    6  A    between atoms: _8  and  _9
REMARK    7  A    between atoms: _18  and  _20
REMARK    8  A    between atoms: _20  and  _21
REMARK    9  A    between atoms: _20  and  _23
REMARK   10  A    between atoms: _23  and  _24
REMARK   11  A    between atoms: _27  and  _29
REMARK   12  A    between atoms: _29  and  _30
REMARK   13  A    between atoms: _29  and  _32
REMARK   14  A    between atoms: _32  and  _33
REMARK   15  A    between atoms: _36  and  _38
REMARK   16  A    between atoms: _38  and  _39
REMARK   17  A    between atoms: _38  and  _41
REMARK   18  A    between atoms: _41  and  _42
REMARK   19  A    between atoms: _45  and  _47
REMARK   20  A    between atoms: _47  and  _48
REMARK   21  A    between atoms: _47  and  _50
REMARK   22  A    between atoms: _50  and  _51
REMARK   23  A    between atoms: _54  and  _56
REMARK   24  A    between atoms: _56  and  _57
REMARK   25  A    between atoms: _59  and  _61
REMARK   26  A    between atoms: _61  and  _62
REMARK   27  A    between atoms: _65  and  _67
REMARK   28  A    between atoms: _67  and  _68
REMARK   29  A    between atoms: _67  and  _70
REMARK   30  A    between atoms: _70  and  _71
REMARK   31  A    between atoms: _74  and  _76
REMARK   32  A    between atoms: _76  and  _77
REMARK   33  A    between atoms: _76  and  _79
REMARK   34  A    between atoms: _79  and  _80
REMARK   35  A    between atoms: _83  and  _85
REMARK   36  A    between atoms: _85  and  _86
REMARK   37  A    between atoms: _85  and  _88
REMARK   38  A    between atoms: _88  and  _89
REMARK   39  A    between atoms: _92  and  _94
REMARK   40  A    between atoms: _94  and  _95
REMARK   41  A    between atoms: _94  and  _97
REMARK   42  A    between atoms: _100  and  _102
REMARK   43  A    between atoms: _102  and  _103
REMARK   44  A    between atoms: _102  and  _105
REMARK   45  A    between atoms: _105  and  _106
REMARK   46  A    between atoms: _106  and  _107
REMARK   47  A    between atoms: _107  and  _108
REMARK   48  A    between atoms: _108  and  _109
REMARK   49  A    between atoms: _113  and  _115
REMARK   50  A    between atoms: _115  and  _116
REMARK   51  A    between atoms: _115  and  _118
REMARK   52  A    between atoms: _118  and  _119
REMARK   53  A    between atoms: _119  and  _120
REMARK   54  A    between atoms: _122  and  _124
REMARK   55  A    between atoms: _124  and  _125
REMARK   56  A    between atoms: _124  and  _127
REMARK   57  A    between atoms: _127  and  _128
REMARK   58  A    between atoms: _131  and  _133
REMARK   59  A    between atoms: _133  and  _134
REMARK   60  A    between atoms: _136  and  _138
REMARK   61  A    between atoms: _138  and  _139
REMARK   62  A    between atoms: _141  and  _143
REMARK   63  A    between atoms: _143  and  _144
REMARK   64  A    between atoms: _143  and  _146
REMARK   65  A    between atoms: _146  and  _147
REMARK   66  A    between atoms: _150  and  _152
REMARK   67  A    between atoms: _152  and  _153
REMARK   68  A    between atoms: _155  and  _157
REMARK   69  A    between atoms: _157  and  _158
REMARK   70  A    between atoms: _160  and  _162
REMARK   71  A    between atoms: _162  and  _163
REMARK   72  A    between atoms: _162  and  _165
REMARK   73  A    between atoms: _165  and  _166
REMARK   74  A    between atoms: _169  and  _171
REMARK   75  A    between atoms: _171  and  _172
REMARK   76  A    between atoms: _171  and  _174
REMARK   77  A    between atoms: _177  and  _179
REMARK   78  A    between atoms: _179  and  _180
REMARK   79  A    between atoms: _179  and  _182
REMARK   80  A    between atoms: _182  and  _183
REMARK   81  A    between atoms: _186  and  _188
REMARK   82  A    between atoms: _188  and  _189
REMARK   83  A    between atoms: _188  and  _191
REMARK   84  A    between atoms: _191  and  _192
REMARK   85  A    between atoms: _196  and  _197
REMARK   86  A    between atoms: _202  and  _204
REMARK   87  A    between atoms: _204  and  _205
REMARK   88  A    between atoms: _204  and  _207
REMARK   89  A    between atoms: _210  and  _212
REMARK   90  A    between atoms: _212  and  _213
REMARK   91  A    between atoms: _212  and  _215
REMARK   92  A    between atoms: _215  and  _216
REMARK   93  A    between atoms: _221  and  _223
REMARK   94  A    between atoms: _223  and  _224
REMARK   95  A    between atoms: _223  and  _226
REMARK   96  A    between atoms: _226  and  _227
REMARK   97  A    between atoms: _230  and  _232
REMARK   98  A    between atoms: _232  and  _233
REMARK   99  A    between atoms: _232  and  _235
REMARK  100  A    between atoms: _235  and  _236
REMARK  101  A    between atoms: _239  and  _241
REMARK  102  A    between atoms: _241  and  _242
REMARK  103  A    between atoms: _244  and  _246
REMARK  104  A    between atoms: _246  and  _247
REMARK  105  A    between atoms: _246  and  _249
REMARK  106  A    between atoms: _249  and  _250
REMARK  107  A    between atoms: _250  and  _251
REMARK  108  A    between atoms: _251  and  _252
REMARK  109  A    between atoms: _261  and  _263
REMARK  110  A    between atoms: _263  and  _264
REMARK  111  A    between atoms: _263  and  _266
REMARK  112  A    between atoms: _266  and  _267
REMARK  113  A    between atoms: _272  and  _274
REMARK  114  A    between atoms: _274  and  _275
REMARK  115  A    between atoms: _274  and  _277
REMARK  116  A    between atoms: _277  and  _278
REMARK  117  A    between atoms: _278  and  _279
REMARK  118  A    between atoms: _279  and  _280
REMARK  119  A    between atoms: _289  and  _291
REMARK  120  A    between atoms: _291  and  _292
REMARK  121  A    between atoms: _291  and  _294
REMARK  122  A    between atoms: _294  and  _295
REMARK  123  A    between atoms: _298  and  _300
REMARK  124  A    between atoms: _300  and  _301
REMARK  125  A    between atoms: _300  and  _303
REMARK  126  A    between atoms: _303  and  _304
REMARK  127  A    between atoms: _307  and  _309
REMARK  128  A    between atoms: _309  and  _310
REMARK  129  A    between atoms: _309  and  _312
REMARK  130  A    between atoms: _312  and  _313
REMARK  131  A    between atoms: _316  and  _318
REMARK  132  A    between atoms: _318  and  _319
REMARK  133  A    between atoms: _318  and  _321
REMARK  134  A    between atoms: _321  and  _322
REMARK  135  A    between atoms: _325  and  _327
REMARK  136  A    between atoms: _327  and  _328
REMARK  137  A    between atoms: _330  and  _332
REMARK  138  A    between atoms: _332  and  _333
REMARK  139  A    between atoms: _336  and  _338
REMARK  140  A    between atoms: _338  and  _339
REMARK  141  A    between atoms: _338  and  _341
REMARK  142  A    between atoms: _341  and  _342
REMARK  143  A    between atoms: _345  and  _347
REMARK  144  A    between atoms: _347  and  _348
REMARK  145  A    between atoms: _347  and  _350
REMARK  146  A    between atoms: _350  and  _351
REMARK  147  A    between atoms: _354  and  _356
REMARK  148  A    between atoms: _356  and  _357
REMARK  149  A    between atoms: _356  and  _359
REMARK  150  A    between atoms: _359  and  _360
REMARK  151  A    between atoms: _363  and  _365
REMARK  152  A    between atoms: _365  and  _366
REMARK  153  A    between atoms: _365  and  _368
REMARK  154  A    between atoms: _371  and  _373
REMARK  155  A    between atoms: _373  and  _374
REMARK  156  A    between atoms: _373  and  _376
REMARK  157  A    between atoms: _376  and  _377
REMARK  158  A    between atoms: _377  and  _378
REMARK  159  A    between atoms: _378  and  _379
REMARK  160  A    between atoms: _379  and  _380
REMARK  161  A    between atoms: _384  and  _386
REMARK  162  A    between atoms: _386  and  _387
REMARK  163  A    between atoms: _386  and  _389
REMARK  164  A    between atoms: _389  and  _390
REMARK  165  A    between atoms: _390  and  _391
REMARK  166  A    between atoms: _393  and  _395
REMARK  167  A    between atoms: _395  and  _396
REMARK  168  A    between atoms: _395  and  _398
REMARK  169  A    between atoms: _398  and  _399
REMARK  170  A    between atoms: _402  and  _404
REMARK  171  A    between atoms: _404  and  _405
REMARK  172  A    between atoms: _407  and  _409
REMARK  173  A    between atoms: _409  and  _410
REMARK  174  A    between atoms: _412  and  _414
REMARK  175  A    between atoms: _414  and  _415
REMARK  176  A    between atoms: _414  and  _417
REMARK  177  A    between atoms: _417  and  _418
REMARK  178  A    between atoms: _421  and  _423
REMARK  179  A    between atoms: _423  and  _424
REMARK  180  A    between atoms: _426  and  _428
REMARK  181  A    between atoms: _428  and  _429
REMARK  182  A    between atoms: _431  and  _433
REMARK  183  A    between atoms: _433  and  _434
REMARK  184  A    between atoms: _433  and  _436
REMARK  185  A    between atoms: _436  and  _437
REMARK  186  A    between atoms: _443  and  _445
REMARK  187  A    between atoms: _445  and  _446
REMARK  188  A    between atoms: _445  and  _448
REMARK  189  A    between atoms: _448  and  _449
REMARK  190  A    between atoms: _452  and  _454
REMARK  191  A    between atoms: _454  and  _455
REMARK  192  A    between atoms: _454  and  _457
REMARK  193  A    between atoms: _460  and  _462
REMARK  194  A    between atoms: _462  and  _463
REMARK  195  A    between atoms: _462  and  _465
REMARK  196  A    between atoms: _465  and  _466
REMARK  197  A    between atoms: _469  and  _471
REMARK  198  A    between atoms: _471  and  _472
REMARK  199  A    between atoms: _471  and  _474
REMARK  200  A    between atoms: _474  and  _475
REMARK  201  A    between atoms: _479  and  _480
REMARK  202  A    between atoms: _485  and  _487
REMARK  203  A    between atoms: _487  and  _488
REMARK  204  A    between atoms: _487  and  _490
REMARK  205  A    between atoms: _493  and  _495
REMARK  206  A    between atoms: _495  and  _496
REMARK  207  A    between atoms: _495  and  _498
REMARK  208  A    between atoms: _498  and  _499
REMARK  209  A    between atoms: _504  and  _506
REMARK  210  A    between atoms: _506  and  _507
REMARK  211  A    between atoms: _506  and  _509
REMARK  212  A    between atoms: _509  and  _510
REMARK  213  A    between atoms: _513  and  _515
REMARK  214  A    between atoms: _515  and  _516
REMARK  215  A    between atoms: _515  and  _518
REMARK  216  A    between atoms: _518  and  _519
REMARK  217  A    between atoms: _522  and  _524
REMARK  218  A    between atoms: _524  and  _525
REMARK  219  A    between atoms: _527  and  _529
REMARK  220  A    between atoms: _529  and  _530
REMARK  221  A    between atoms: _529  and  _532
REMARK  222  A    between atoms: _532  and  _533
REMARK  223  A    between atoms: _533  and  _534
REMARK  224  A    between atoms: _534  and  _535
REMARK  225  A    between atoms: _544  and  _546
REMARK  226  A    between atoms: _546  and  _547
REMARK  227  A    between atoms: _546  and  _549
REMARK  228  A    between atoms: _549  and  _550
REMARK                            x       y       z     vdW  Elec       q    Type
REMARK                         _______ _______ _______ _____ _____    ______ ____
ROOT
ATOM      1  O   HOH     1      14.214  35.022  26.042  0.00  0.00    +0.000 OA
ENDROOT
TORSDOF 0
REMARK  Name = ../refined-set-2016/2qi4/2qi4_pocket.pdb
REMARK  228 active torsions:
REMARK  status: ('A' for Active; 'I' for Inactive)
REMARK    1  A    between atoms: _1  and  _3
REMARK    2  A    between atoms: _3  and  _4
REMARK    3  A    between atoms: _3  and  _6
REMARK    4  A    between atoms: _6  and  _7
REMARK    5  A    between atoms: _7  and  _8
REMARK    6  A    between atoms: _8  and  _9
REMARK    7  A    between atoms: _18  and  _20
REMARK    8  A    between atoms: _20  and  _21
REMARK    9  A    between atoms: _20  and  _23
REMARK   10  A    between atoms: _23  and  _24
REMARK   11  A    between atoms: _27  and  _29
REMARK   12  A    between atoms: _29  and  _30
REMARK   13  A    between atoms: _29  and  _32
REMARK   14  A    between atoms: _32  and  _33
REMARK   15  A    between atoms: _36  and  _38
REMARK   16  A    between atoms: _38  and  _39
REMARK   17  A    between atoms: _38  and  _41
REMARK   18  A    between atoms: _41  and  _42
REMARK   19  A    between atoms: _45  and  _47
REMARK   20  A    between atoms: _47  and  _48
REMARK   21  A    between atoms: _47  and  _50
REMARK   22  A    between atoms: _50  and  _51
REMARK   23  A    between atoms: _54  and  _56
REMARK   24  A    between atoms: _56  and  _57
REMARK   25  A    between atoms: _59  and  _61
REMARK   26  A    between atoms: _61  and  _62
REMARK   27  A    between atoms: _65  and  _67
REMARK   28  A    between atoms: _67  and  _68
REMARK   29  A    between atoms: _67  and  _70
REMARK   30  A    between atoms: _70  and  _71
REMARK   31  A    between atoms: _74  and  _76
REMARK   32  A    between atoms: _76  and  _77
REMARK   33  A    between atoms: _76  and  _79
REMARK   34  A    between atoms: _79  and  _80
REMARK   35  A    between atoms: _83  and  _85
REMARK   36  A    between atoms: _85  and  _86
REMARK   37  A    between atoms: _85  and  _88
REMARK   38  A    between atoms: _88  and  _89
REMARK   39  A    between atoms: _92  and  _94
REMARK   40  A    between atoms: _94  and  _95
REMARK   41  A    between atoms: _94  and  _97
REMARK   42  A    between atoms: _100  and  _102
REMARK   43  A    between atoms: _102  and  _103
REMARK   44  A    between atoms: _102  and  _105
REMARK   45  A    between atoms: _105  and  _106
REMARK   46  A    between atoms: _106  and  _107
REMARK   47  A    between atoms: _107  and  _108
REMARK   48  A    between atoms: _108  and  _109
REMARK   49  A    between atoms: _113  and  _115
REMARK   50  A    between atoms: _115  and  _116
REMARK   51  A    between atoms: _115  and  _118
REMARK   52  A    between atoms: _118  and  _119
REMARK   53  A    between atoms: _119  and  _120
REMARK   54  A    between atoms: _122  and  _124
REMARK   55  A    between atoms: _124  and  _125
REMARK   56  A    between atoms: _124  and  _127
REMARK   57  A    between atoms: _127  and  _128
REMARK   58  A    between atoms: _131  and  _133
REMARK   59  A    between atoms: _133  and  _134
REMARK   60  A    between atoms: _136  and  _138
REMARK   61  A    between atoms: _138  and  _139
REMARK   62  A    between atoms: _141  and  _143
REMARK   63  A    between atoms: _143  and  _144
REMARK   64  A    between atoms: _143  and  _146
REMARK   65  A    between atoms: _146  and  _147
REMARK   66  A    between atoms: _150  and  _152
REMARK   67  A    between atoms: _152  and  _153
REMARK   68  A    between atoms: _155  and  _157
REMARK   69  A    between atoms: _157  and  _158
REMARK   70  A    between atoms: _160  and  _162
REMARK   71  A    between atoms: _162  and  _163
REMARK   72  A    between atoms: _162  and  _165
REMARK   73  A    between atoms: _165  and  _166
REMARK   74  A    between atoms: _169  and  _171
REMARK   75  A    between atoms: _171  and  _172
REMARK   76  A    between atoms: _171  and  _174
REMARK   77  A    between atoms: _177  and  _179
REMARK   78  A    between atoms: _179  and  _180
REMARK   79  A    between atoms: _179  and  _182
REMARK   80  A    between atoms: _182  and  _183
REMARK   81  A    between atoms: _186  and  _188
REMARK   82  A    between atoms: _188  and  _189
REMARK   83  A    between atoms: _188  and  _191
REMARK   84  A    between atoms: _191  and  _192
REMARK   85  A    between atoms: _196  and  _197
REMARK   86  A    between atoms: _202  and  _204
REMARK   87  A    between atoms: _204  and  _205
REMARK   88  A    between atoms: _204  and  _207
REMARK   89  A    between atoms: _210  and  _212
REMARK   90  A    between atoms: _212  and  _213
REMARK   91  A    between atoms: _212  and  _215
REMARK   92  A    between atoms: _215  and  _216
REMARK   93  A    between atoms: _221  and  _223
REMARK   94  A    between atoms: _223  and  _224
REMARK   95  A    between atoms: _223  and  _226
REMARK   96  A    between atoms: _226  and  _227
REMARK   97  A    between atoms: _230  and  _232
REMARK   98  A    between atoms: _232  and  _233
REMARK   99  A    between atoms: _232  and  _235
REMARK  100  A    between atoms: _235  and  _236
REMARK  101  A    between atoms: _239  and  _241
REMARK  102  A    between atoms: _241  and  _242
REMARK  103  A    between atoms: _244  and  _246
REMARK  104  A    between atoms: _246  and  _247
REMARK  105  A    between atoms: _246  and  _249
REMARK  106  A    between atoms: _249  and  _250
REMARK  107  A    between atoms: _250  and  _251
REMARK  108  A    between atoms: _251  and  _252
REMARK  109  A    between atoms: _261  and  _263
REMARK  110  A    between atoms: _263  and  _264
REMARK  111  A    between atoms: _263  and  _266
REMARK  112  A    between atoms: _266  and  _267
REMARK  113  A    between atoms: _272  and  _274
REMARK  114  A    between atoms: _274  and  _275
REMARK  115  A    between atoms: _274  and  _277
REMARK  116  A    between atoms: _277  and  _278
REMARK  117  A    between atoms: _278  and  _279
REMARK  118  A    between atoms: _279  and  _280
REMARK  119  A    between atoms: _289  and  _291
REMARK  120  A    between atoms: _291  and  _292
REMARK  121  A    between atoms: _291  and  _294
REMARK  122  A    between atoms: _294  and  _295
REMARK  123  A    between atoms: _298  and  _300
REMARK  124  A    between atoms: _300  and  _301
REMARK  125  A    between atoms: _300  and  _303
REMARK  126  A    between atoms: _303  and  _304
REMARK  127  A    between atoms: _307  and  _309
REMARK  128  A    between atoms: _309  and  _310
REMARK  129  A    between atoms: _309  and  _312
REMARK  130  A    between atoms: _312  and  _313
REMARK  131  A    between atoms: _316  and  _318
REMARK  132  A    between atoms: _318  and  _319
REMARK  133  A    between atoms: _318  and  _321
REMARK  134  A    between atoms: _321  and  _322
REMARK  135  A    between atoms: _325  and  _327
REMARK  136  A    between atoms: _327  and  _328
REMARK  137  A    between atoms: _330  and  _332
REMARK  138  A    between atoms: _332  and  _333
REMARK  139  A    between atoms: _336  and  _338
REMARK  140  A    between atoms: _338  and  _339
REMARK  141  A    between atoms: _338  and  _341
REMARK  142  A    between atoms: _341  and  _342
REMARK  143  A    between atoms: _345  and  _347
REMARK  144  A    between atoms: _347  and  _348
REMARK  145  A    between atoms: _347  and  _350
REMARK  146  A    between atoms: _350  and  _351
REMARK  147  A    between atoms: _354  and  _356
REMARK  148  A    between atoms: _356  and  _357
REMARK  149  A    between atoms: _356  and  _359
REMARK  150  A    between atoms: _359  and  _360
REMARK  151  A    between atoms: _363  and  _365
REMARK  152  A    between atoms: _365  and  _366
REMARK  153  A    between atoms: _365  and  _368
REMARK  154  A    between atoms: _371  and  _373
REMARK  155  A    between atoms: _373  and  _374
REMARK  156  A    between atoms: _373  and  _376
REMARK  157  A    between atoms: _376  and  _377
REMARK  158  A    between atoms: _377  and  _378
REMARK  159  A    between atoms: _378  and  _379
REMARK  160  A    between atoms: _379  and  _380
REMARK  161  A    between atoms: _384  and  _386
REMARK  162  A    between atoms: _386  and  _387
REMARK  163  A    between atoms: _386  and  _389
REMARK  164  A    between atoms: _389  and  _390
REMARK  165  A    between atoms: _390  and  _391
REMARK  166  A    between atoms: _393  and  _395
REMARK  167  A    between atoms: _395  and  _396
REMARK  168  A    between atoms: _395  and  _398
REMARK  169  A    between atoms: _398  and  _399
REMARK  170  A    between atoms: _402  and  _404
REMARK  171  A    between atoms: _404  and  _405
REMARK  172  A    between atoms: _407  and  _409
REMARK  173  A    between atoms: _409  and  _410
REMARK  174  A    between atoms: _412  and  _414
REMARK  175  A    between atoms: _414  and  _415
REMARK  176  A    between atoms: _414  and  _417
REMARK  177  A    between atoms: _417  and  _418
REMARK  178  A    between atoms: _421  and  _423
REMARK  179  A    between atoms: _423  and  _424
REMARK  180  A    between atoms: _426  and  _428
REMARK  181  A    between atoms: _428  and  _429
REMARK  182  A    between atoms: _431  and  _433
REMARK  183  A    between atoms: _433  and  _434
REMARK  184  A    between atoms: _433  and  _436
REMARK  185  A    between atoms: _436  and  _437
REMARK  186  A    between atoms: _443  and  _445
REMARK  187  A    between atoms: _445  and  _446
REMARK  188  A    between atoms: _445  and  _448
REMARK  189  A    between atoms: _448  and  _449
REMARK  190  A    between atoms: _452  and  _454
REMARK  191  A    between atoms: _454  and  _455
REMARK  192  A    between atoms: _454  and  _457
REMARK  193  A    between atoms: _460  and  _462
REMARK  194  A    between atoms: _462  and  _463
REMARK  195  A    between atoms: _462  and  _465
REMARK  196  A    between atoms: _465  and  _466
REMARK  197  A    between atoms: _469  and  _471
REMARK  198  A    between atoms: _471  and  _472
REMARK  199  A    between atoms: _471  and  _474
REMARK  200  A    between atoms: _474  and  _475
REMARK  201  A    between atoms: _479  and  _480
REMARK  202  A    between atoms: _485  and  _487
REMARK  203  A    between atoms: _487  and  _488
REMARK  204  A    between atoms: _487  and  _490
REMARK  205  A    between atoms: _493  and  _495
REMARK  206  A    between atoms: _495  and  _496
REMARK  207  A    between atoms: _495  and  _498
REMARK  208  A    between atoms: _498  and  _499
REMARK  209  A    between atoms: _504  and  _506
REMARK  210  A    between atoms: _506  and  _507
REMARK  211  A    between atoms: _506  and  _509
REMARK  212  A    between atoms: _509  and  _510
REMARK  213  A    between atoms: _513  and  _515
REMARK  214  A    between atoms: _515  and  _516
REMARK  215  A    between atoms: _515  and  _518
REMARK  216  A    between atoms: _518  and  _519
REMARK  217  A    between atoms: _522  and  _524
REMARK  218  A    between atoms: _524  and  _525
REMARK  219  A    between atoms: _527  and  _529
REMARK  220  A    between atoms: _529  and  _530
REMARK  221  A    between atoms: _529  and  _532
REMARK  222  A    between atoms: _532  and  _533
REMARK  223  A    between atoms: _533  and  _534
REMARK  224  A    between atoms: _534  and  _535
REMARK  225  A    between atoms: _544  and  _546
REMARK  226  A    between atoms: _546  and  _547
REMARK  227  A    between atoms: _546  and  _549
REMARK  228  A    between atoms: _549  and  _550
REMARK                            x       y       z     vdW  Elec       q    Type
REMARK                         _______ _______ _______ _____ _____    ______ ____
ROOT
ATOM      1  O   HOH     1      19.768  37.080  19.090  0.00  0.00    +0.000 OA
ENDROOT
TORSDOF 0
REMARK  Name = ../refined-set-2016/2qi4/2qi4_pocket.pdb
REMARK  228 active torsions:
REMARK  status: ('A' for Active; 'I' for Inactive)
REMARK    1  A    between atoms: _1  and  _3
REMARK    2  A    between atoms: _3  and  _4
REMARK    3  A    between atoms: _3  and  _6
REMARK    4  A    between atoms: _6  and  _7
REMARK    5  A    between atoms: _7  and  _8
REMARK    6  A    between atoms: _8  and  _9
REMARK    7  A    between atoms: _18  and  _20
REMARK    8  A    between atoms: _20  and  _21
REMARK    9  A    between atoms: _20  and  _23
REMARK   10  A    between atoms: _23  and  _24
REMARK   11  A    between atoms: _27  and  _29
REMARK   12  A    between atoms: _29  and  _30
REMARK   13  A    between atoms: _29  and  _32
REMARK   14  A    between atoms: _32  and  _33
REMARK   15  A    between atoms: _36  and  _38
REMARK   16  A    between atoms: _38  and  _39
REMARK   17  A    between atoms: _38  and  _41
REMARK   18  A    between atoms: _41  and  _42
REMARK   19  A    between atoms: _45  and  _47
REMARK   20  A    between atoms: _47  and  _48
REMARK   21  A    between atoms: _47  and  _50
REMARK   22  A    between atoms: _50  and  _51
REMARK   23  A    between atoms: _54  and  _56
REMARK   24  A    between atoms: _56  and  _57
REMARK   25  A    between atoms: _59  and  _61
REMARK   26  A    between atoms: _61  and  _62
REMARK   27  A    between atoms: _65  and  _67
REMARK   28  A    between atoms: _67  and  _68
REMARK   29  A    between atoms: _67  and  _70
REMARK   30  A    between atoms: _70  and  _71
REMARK   31  A    between atoms: _74  and  _76
REMARK   32  A    between atoms: _76  and  _77
REMARK   33  A    between atoms: _76  and  _79
REMARK   34  A    between atoms: _79  and  _80
REMARK   35  A    between atoms: _83  and  _85
REMARK   36  A    between atoms: _85  and  _86
REMARK   37  A    between atoms: _85  and  _88
REMARK   38  A    between atoms: _88  and  _89
REMARK   39  A    between atoms: _92  and  _94
REMARK   40  A    between atoms: _94  and  _95
REMARK   41  A    between atoms: _94  and  _97
REMARK   42  A    between atoms: _100  and  _102
REMARK   43  A    between atoms: _102  and  _103
REMARK   44  A    between atoms: _102  and  _105
REMARK   45  A    between atoms: _105  and  _106
REMARK   46  A    between atoms: _106  and  _107
REMARK   47  A    between atoms: _107  and  _108
REMARK   48  A    between atoms: _108  and  _109
REMARK   49  A    between atoms: _113  and  _115
REMARK   50  A    between atoms: _115  and  _116
REMARK   51  A    between atoms: _115  and  _118
REMARK   52  A    between atoms: _118  and  _119
REMARK   53  A    between atoms: _119  and  _120
REMARK   54  A    between atoms: _122  and  _124
REMARK   55  A    between atoms: _124  and  _125
REMARK   56  A    between atoms: _124  and  _127
REMARK   57  A    between atoms: _127  and  _128
REMARK   58  A    between atoms: _131  and  _133
REMARK   59  A    between atoms: _133  and  _134
REMARK   60  A    between atoms: _136  and  _138
REMARK   61  A    between atoms: _138  and  _139
REMARK   62  A    between atoms: _141  and  _143
REMARK   63  A    between atoms: _143  and  _144
REMARK   64  A    between atoms: _143  and  _146
REMARK   65  A    between atoms: _146  and  _147
REMARK   66  A    between atoms: _150  and  _152
REMARK   67  A    between atoms: _152  and  _153
REMARK   68  A    between atoms: _155  and  _157
REMARK   69  A    between atoms: _157  and  _158
REMARK   70  A    between atoms: _160  and  _162
REMARK   71  A    between atoms: _162  and  _163
REMARK   72  A    between atoms: _162  and  _165
REMARK   73  A    between atoms: _165  and  _166
REMARK   74  A    between atoms: _169  and  _171
REMARK   75  A    between atoms: _171  and  _172
REMARK   76  A    between atoms: _171  and  _174
REMARK   77  A    between atoms: _177  and  _179
REMARK   78  A    between atoms: _179  and  _180
REMARK   79  A    between atoms: _179  and  _182
REMARK   80  A    between atoms: _182  and  _183
REMARK   81  A    between atoms: _186  and  _188
REMARK   82  A    between atoms: _188  and  _189
REMARK   83  A    between atoms: _188  and  _191
REMARK   84  A    between atoms: _191  and  _192
REMARK   85  A    between atoms: _196  and  _197
REMARK   86  A    between atoms: _202  and  _204
REMARK   87  A    between atoms: _204  and  _205
REMARK   88  A    between atoms: _204  and  _207
REMARK   89  A    between atoms: _210  and  _212
REMARK   90  A    between atoms: _212  and  _213
REMARK   91  A    between atoms: _212  and  _215
REMARK   92  A    between atoms: _215  and  _216
REMARK   93  A    between atoms: _221  and  _223
REMARK   94  A    between atoms: _223  and  _224
REMARK   95  A    between atoms: _223  and  _226
REMARK   96  A    between atoms: _226  and  _227
REMARK   97  A    between atoms: _230  and  _232
REMARK   98  A    between atoms: _232  and  _233
REMARK   99  A    between atoms: _232  and  _235
REMARK  100  A    between atoms: _235  and  _236
REMARK  101  A    between atoms: _239  and  _241
REMARK  102  A    between atoms: _241  and  _242
REMARK  103  A    between atoms: _244  and  _246
REMARK  104  A    between atoms: _246  and  _247
REMARK  105  A    between atoms: _246  and  _249
REMARK  106  A    between atoms: _249  and  _250
REMARK  107  A    between atoms: _250  and  _251
REMARK  108  A    between atoms: _251  and  _252
REMARK  109  A    between atoms: _261  and  _263
REMARK  110  A    between atoms: _263  and  _264
REMARK  111  A    between atoms: _263  and  _266
REMARK  112  A    between atoms: _266  and  _267
REMARK  113  A    between atoms: _272  and  _274
REMARK  114  A    between atoms: _274  and  _275
REMARK  115  A    between atoms: _274  and  _277
REMARK  116  A    between atoms: _277  and  _278
REMARK  117  A    between atoms: _278  and  _279
REMARK  118  A    between atoms: _279  and  _280
REMARK  119  A    between atoms: _289  and  _291
REMARK  120  A    between atoms: _291  and  _292
REMARK  121  A    between atoms: _291  and  _294
REMARK  122  A    between atoms: _294  and  _295
REMARK  123  A    between atoms: _298  and  _300
REMARK  124  A    between atoms: _300  and  _301
REMARK  125  A    between atoms: _300  and  _303
REMARK  126  A    between atoms: _303  and  _304
REMARK  127  A    between atoms: _307  and  _309
REMARK  128  A    between atoms: _309  and  _310
REMARK  129  A    between atoms: _309  and  _312
REMARK  130  A    between atoms: _312  and  _313
REMARK  131  A    between atoms: _316  and  _318
REMARK  132  A    between atoms: _318  and  _319
REMARK  133  A    between atoms: _318  and  _321
REMARK  134  A    between atoms: _321  and  _322
REMARK  135  A    between atoms: _325  and  _327
REMARK  136  A    between atoms: _327  and  _328
REMARK  137  A    between atoms: _330  and  _332
REMARK  138  A    between atoms: _332  and  _333
REMARK  139  A    between atoms: _336  and  _338
REMARK  140  A    between atoms: _338  and  _339
REMARK  141  A    between atoms: _338  and  _341
REMARK  142  A    between atoms: _341  and  _342
REMARK  143  A    between atoms: _345  and  _347
REMARK  144  A    between atoms: _347  and  _348
REMARK  145  A    between atoms: _347  and  _350
REMARK  146  A    between atoms: _350  and  _351
REMARK  147  A    between atoms: _354  and  _356
REMARK  148  A    between atoms: _356  and  _357
REMARK  149  A    between atoms: _356  and  _359
REMARK  150  A    between atoms: _359  and  _360
REMARK  151  A    between atoms: _363  and  _365
REMARK  152  A    between atoms: _365  and  _366
REMARK  153  A    between atoms: _365  and  _368
REMARK  154  A    between atoms: _371  and  _373
REMARK  155  A    between atoms: _373  and  _374
REMARK  156  A    between atoms: _373  and  _376
REMARK  157  A    between atoms: _376  and  _377
REMARK  158  A    between atoms: _377  and  _378
REMARK  159  A    between atoms: _378  and  _379
REMARK  160  A    between atoms: _379  and  _380
REMARK  161  A    between atoms: _384  and  _386
REMARK  162  A    between atoms: _386  and  _387
REMARK  163  A    between atoms: _386  and  _389
REMARK  164  A    between atoms: _389  and  _390
REMARK  165  A    between atoms: _390  and  _391
REMARK  166  A    between atoms: _393  and  _395
REMARK  167  A    between atoms: _395  and  _396
REMARK  168  A    between atoms: _395  and  _398
REMARK  169  A    between atoms: _398  and  _399
REMARK  170  A    between atoms: _402  and  _404
REMARK  171  A    between atoms: _404  and  _405
REMARK  172  A    between atoms: _407  and  _409
REMARK  173  A    between atoms: _409  and  _410
REMARK  174  A    between atoms: _412  and  _414
REMARK  175  A    between atoms: _414  and  _415
REMARK  176  A    between atoms: _414  and  _417
REMARK  177  A    between atoms: _417  and  _418
REMARK  178  A    between atoms: _421  and  _423
REMARK  179  A    between atoms: _423  and  _424
REMARK  180  A    between atoms: _426  and  _428
REMARK  181  A    between atoms: _428  and  _429
REMARK  182  A    between atoms: _431  and  _433
REMARK  183  A    between atoms: _433  and  _434
REMARK  184  A    between atoms: _433  and  _436
REMARK  185  A    between atoms: _436  and  _437
REMARK  186  A    between atoms: _443  and  _445
REMARK  187  A    between atoms: _445  and  _446
REMARK  188  A    between atoms: _445  and  _448
REMARK  189  A    between atoms: _448  and  _449
REMARK  190  A    between atoms: _452  and  _454
REMARK  191  A    between atoms: _454  and  _455
REMARK  192  A    between atoms: _454  and  _457
REMARK  193  A    between atoms: _460  and  _462
REMARK  194  A    between atoms: _462  and  _463
REMARK  195  A    between atoms: _462  and  _465
REMARK  196  A    between atoms: _465  and  _466
REMARK  197  A    between atoms: _469  and  _471
REMARK  198  A    between atoms: _471  and  _472
REMARK  199  A    between atoms: _471  and  _474
REMARK  200  A    between atoms: _474  and  _475
REMARK  201  A    between atoms: _479  and  _480
REMARK  202  A    between atoms: _485  and  _487
REMARK  203  A    between atoms: _487  and  _488
REMARK  204  A    between atoms: _487  and  _490
REMARK  205  A    between atoms: _493  and  _495
REMARK  206  A    between atoms: _495  and  _496
REMARK  207  A    between atoms: _495  and  _498
REMARK  208  A    between atoms: _498  and  _499
REMARK  209  A    between atoms: _504  and  _506
REMARK  210  A    between atoms: _506  and  _507
REMARK  211  A    between atoms: _506  and  _509
REMARK  212  A    between atoms: _509  and  _510
REMARK  213  A    between atoms: _513  and  _515
REMARK  214  A    between atoms: _515  and  _516
REMARK  215  A    between atoms: _515  and  _518
REMARK  216  A    between atoms: _518  and  _519
REMARK  217  A    between atoms: _522  and  _524
REMARK  218  A    between atoms: _524  and  _525
REMARK  219  A    between atoms: _527  and  _529
REMARK  220  A    between atoms: _529  and  _530
REMARK  221  A    between atoms: _529  and  _532
REMARK  222  A    between atoms: _532  and  _533
REMARK  223  A    between atoms: _533  and  _534
REMARK  224  A    between atoms: _534  and  _535
REMARK  225  A    between atoms: _544  and  _546
REMARK  226  A    between atoms: _546  and  _547
REMARK  227  A    between atoms: _546  and  _549
REMARK  228  A    between atoms: _549  and  _550
REMARK                            x       y       z     vdW  Elec       q    Type
REMARK                         _______ _______ _______ _____ _____    ______ ____
ROOT
ATOM      1  O   HOH     1      10.068  36.646  23.669  0.00  0.00    +0.000 OA
ENDROOT
TORSDOF 0
REMARK  Name = ../refined-set-2016/2qi4/2qi4_pocket.pdb
REMARK  228 active torsions:
REMARK  status: ('A' for Active; 'I' for Inactive)
REMARK    1  A    between atoms: _1  and  _3
REMARK    2  A    between atoms: _3  and  _4
REMARK    3  A    between atoms: _3  and  _6
REMARK    4  A    between atoms: _6  and  _7
REMARK    5  A    between atoms: _7  and  _8
REMARK    6  A    between atoms: _8  and  _9
REMARK    7  A    between atoms: _18  and  _20
REMARK    8  A    between atoms: _20  and  _21
REMARK    9  A    between atoms: _20  and  _23
REMARK   10  A    between atoms: _23  and  _24
REMARK   11  A    between atoms: _27  and  _29
REMARK   12  A    between atoms: _29  and  _30
REMARK   13  A    between atoms: _29  and  _32
REMARK   14  A    between atoms: _32  and  _33
REMARK   15  A    between atoms: _36  and  _38
REMARK   16  A    between atoms: _38  and  _39
REMARK   17  A    between atoms: _38  and  _41
REMARK   18  A    between atoms: _41  and  _42
REMARK   19  A    between atoms: _45  and  _47
REMARK   20  A    between atoms: _47  and  _48
REMARK   21  A    between atoms: _47  and  _50
REMARK   22  A    between atoms: _50  and  _51
REMARK   23  A    between atoms: _54  and  _56
REMARK   24  A    between atoms: _56  and  _57
REMARK   25  A    between atoms: _59  and  _61
REMARK   26  A    between atoms: _61  and  _62
REMARK   27  A    between atoms: _65  and  _67
REMARK   28  A    between atoms: _67  and  _68
REMARK   29  A    between atoms: _67  and  _70
REMARK   30  A    between atoms: _70  and  _71
REMARK   31  A    between atoms: _74  and  _76
REMARK   32  A    between atoms: _76  and  _77
REMARK   33  A    between atoms: _76  and  _79
REMARK   34  A    between atoms: _79  and  _80
REMARK   35  A    between atoms: _83  and  _85
REMARK   36  A    between atoms: _85  and  _86
REMARK   37  A    between atoms: _85  and  _88
REMARK   38  A    between atoms: _88  and  _89
REMARK   39  A    between atoms: _92  and  _94
REMARK   40  A    between atoms: _94  and  _95
REMARK   41  A    between atoms: _94  and  _97
REMARK   42  A    between atoms: _100  and  _102
REMARK   43  A    between atoms: _102  and  _103
REMARK   44  A    between atoms: _102  and  _105
REMARK   45  A    between atoms: _105  and  _106
REMARK   46  A    between atoms: _106  and  _107
REMARK   47  A    between atoms: _107  and  _108
REMARK   48  A    between atoms: _108  and  _109
REMARK   49  A    between atoms: _113  and  _115
REMARK   50  A    between atoms: _115  and  _116
REMARK   51  A    between atoms: _115  and  _118
REMARK   52  A    between atoms: _118  and  _119
REMARK   53  A    between atoms: _119  and  _120
REMARK   54  A    between atoms: _122  and  _124
REMARK   55  A    between atoms: _124  and  _125
REMARK   56  A    between atoms: _124  and  _127
REMARK   57  A    between atoms: _127  and  _128
REMARK   58  A    between atoms: _131  and  _133
REMARK   59  A    between atoms: _133  and  _134
REMARK   60  A    between atoms: _136  and  _138
REMARK   61  A    between atoms: _138  and  _139
REMARK   62  A    between atoms: _141  and  _143
REMARK   63  A    between atoms: _143  and  _144
REMARK   64  A    between atoms: _143  and  _146
REMARK   65  A    between atoms: _146  and  _147
REMARK   66  A    between atoms: _150  and  _152
REMARK   67  A    between atoms: _152  and  _153
REMARK   68  A    between atoms: _155  and  _157
REMARK   69  A    between atoms: _157  and  _158
REMARK   70  A    between atoms: _160  and  _162
REMARK   71  A    between atoms: _162  and  _163
REMARK   72  A    between atoms: _162  and  _165
REMARK   73  A    between atoms: _165  and  _166
REMARK   74  A    between atoms: _169  and  _171
REMARK   75  A    between atoms: _171  and  _172
REMARK   76  A    between atoms: _171  and  _174
REMARK   77  A    between atoms: _177  and  _179
REMARK   78  A    between atoms: _179  and  _180
REMARK   79  A    between atoms: _179  and  _182
REMARK   80  A    between atoms: _182  and  _183
REMARK   81  A    between atoms: _186  and  _188
REMARK   82  A    between atoms: _188  and  _189
REMARK   83  A    between atoms: _188  and  _191
REMARK   84  A    between atoms: _191  and  _192
REMARK   85  A    between atoms: _196  and  _197
REMARK   86  A    between atoms: _202  and  _204
REMARK   87  A    between atoms: _204  and  _205
REMARK   88  A    between atoms: _204  and  _207
REMARK   89  A    between atoms: _210  and  _212
REMARK   90  A    between atoms: _212  and  _213
REMARK   91  A    between atoms: _212  and  _215
REMARK   92  A    between atoms: _215  and  _216
REMARK   93  A    between atoms: _221  and  _223
REMARK   94  A    between atoms: _223  and  _224
REMARK   95  A    between atoms: _223  and  _226
REMARK   96  A    between atoms: _226  and  _227
REMARK   97  A    between atoms: _230  and  _232
REMARK   98  A    between atoms: _232  and  _233
REMARK   99  A    between atoms: _232  and  _235
REMARK  100  A    between atoms: _235  and  _236
REMARK  101  A    between atoms: _239  and  _241
REMARK  102  A    between atoms: _241  and  _242
REMARK  103  A    between atoms: _244  and  _246
REMARK  104  A    between atoms: _246  and  _247
REMARK  105  A    between atoms: _246  and  _249
REMARK  106  A    between atoms: _249  and  _250
REMARK  107  A    between atoms: _250  and  _251
REMARK  108  A    between atoms: _251  and  _252
REMARK  109  A    between atoms: _261  and  _263
REMARK  110  A    between atoms: _263  and  _264
REMARK  111  A    between atoms: _263  and  _266
REMARK  112  A    between atoms: _266  and  _267
REMARK  113  A    between atoms: _272  and  _274
REMARK  114  A    between atoms: _274  and  _275
REMARK  115  A    between atoms: _274  and  _277
REMARK  116  A    between atoms: _277  and  _278
REMARK  117  A    between atoms: _278  and  _279
REMARK  118  A    between atoms: _279  and  _280
REMARK  119  A    between atoms: _289  and  _291
REMARK  120  A    between atoms: _291  and  _292
REMARK  121  A    between atoms: _291  and  _294
REMARK  122  A    between atoms: _294  and  _295
REMARK  123  A    between atoms: _298  and  _300
REMARK  124  A    between atoms: _300  and  _301
REMARK  125  A    between atoms: _300  and  _303
REMARK  126  A    between atoms: _303  and  _304
REMARK  127  A    between atoms: _307  and  _309
REMARK  128  A    between atoms: _309  and  _310
REMARK  129  A    between atoms: _309  and  _312
REMARK  130  A    between atoms: _312  and  _313
REMARK  131  A    between atoms: _316  and  _318
REMARK  132  A    between atoms: _318  and  _319
REMARK  133  A    between atoms: _318  and  _321
REMARK  134  A    between atoms: _321  and  _322
REMARK  135  A    between atoms: _325  and  _327
REMARK  136  A    between atoms: _327  and  _328
REMARK  137  A    between atoms: _330  and  _332
REMARK  138  A    between atoms: _332  and  _333
REMARK  139  A    between atoms: _336  and  _338
REMARK  140  A    between atoms: _338  and  _339
REMARK  141  A    between atoms: _338  and  _341
REMARK  142  A    between atoms: _341  and  _342
REMARK  143  A    between atoms: _345  and  _347
REMARK  144  A    between atoms: _347  and  _348
REMARK  145  A    between atoms: _347  and  _350
REMARK  146  A    between atoms: _350  and  _351
REMARK  147  A    between atoms: _354  and  _356
REMARK  148  A    between atoms: _356  and  _357
REMARK  149  A    between atoms: _356  and  _359
REMARK  150  A    between atoms: _359  and  _360
REMARK  151  A    between atoms: _363  and  _365
REMARK  152  A    between atoms: _365  and  _366
REMARK  153  A    between atoms: _365  and  _368
REMARK  154  A    between atoms: _371  and  _373
REMARK  155  A    between atoms: _373  and  _374
REMARK  156  A    between atoms: _373  and  _376
REMARK  157  A    between atoms: _376  and  _377
REMARK  158  A    between atoms: _377  and  _378
REMARK  159  A    between atoms: _378  and  _379
REMARK  160  A    between atoms: _379  and  _380
REMARK  161  A    between atoms: _384  and  _386
REMARK  162  A    between atoms: _386  and  _387
REMARK  163  A    between atoms: _386  and  _389
REMARK  164  A    between atoms: _389  and  _390
REMARK  165  A    between atoms: _390  and  _391
REMARK  166  A    between atoms: _393  and  _395
REMARK  167  A    between atoms: _395  and  _396
REMARK  168  A    between atoms: _395  and  _398
REMARK  169  A    between atoms: _398  and  _399
REMARK  170  A    between atoms: _402  and  _404
REMARK  171  A    between atoms: _404  and  _405
REMARK  172  A    between atoms: _407  and  _409
REMARK  173  A    between atoms: _409  and  _410
REMARK  174  A    between atoms: _412  and  _414
REMARK  175  A    between atoms: _414  and  _415
REMARK  176  A    between atoms: _414  and  _417
REMARK  177  A    between atoms: _417  and  _418
REMARK  178  A    between atoms: _421  and  _423
REMARK  179  A    between atoms: _423  and  _424
REMARK  180  A    between atoms: _426  and  _428
REMARK  181  A    between atoms: _428  and  _429
REMARK  182  A    between atoms: _431  and  _433
REMARK  183  A    between atoms: _433  and  _434
REMARK  184  A    between atoms: _433  and  _436
REMARK  185  A    between atoms: _436  and  _437
REMARK  186  A    between atoms: _443  and  _445
REMARK  187  A    between atoms: _445  and  _446
REMARK  188  A    between atoms: _445  and  _448
REMARK  189  A    between atoms: _448  and  _449
REMARK  190  A    between atoms: _452  and  _454
REMARK  191  A    between atoms: _454  and  _455
REMARK  192  A    between atoms: _454  and  _457
REMARK  193  A    between atoms: _460  and  _462
REMARK  194  A    between atoms: _462  and  _463
REMARK  195  A    between atoms: _462  and  _465
REMARK  196  A    between atoms: _465  and  _466
REMARK  197  A    between atoms: _469  and  _471
REMARK  198  A    between atoms: _471  and  _472
REMARK  199  A    between atoms: _471  and  _474
REMARK  200  A    between atoms: _474  and  _475
REMARK  201  A    between atoms: _479  and  _480
REMARK  202  A    between atoms: _485  and  _487
REMARK  203  A    between atoms: _487  and  _488
REMARK  204  A    between atoms: _487  and  _490
REMARK  205  A    between atoms: _493  and  _495
REMARK  206  A    between atoms: _495  and  _496
REMARK  207  A    between atoms: _495  and  _498
REMARK  208  A    between atoms: _498  and  _499
REMARK  209  A    between atoms: _504  and  _506
REMARK  210  A    between atoms: _506  and  _507
REMARK  211  A    between atoms: _506  and  _509
REMARK  212  A    between atoms: _509  and  _510
REMARK  213  A    between atoms: _513  and  _515
REMARK  214  A    between atoms: _515  and  _516
REMARK  215  A    between atoms: _515  and  _518
REMARK  216  A    between atoms: _518  and  _519
REMARK  217  A    between atoms: _522  and  _524
REMARK  218  A    between atoms: _524  and  _525
REMARK  219  A    between atoms: _527  and  _529
REMARK  220  A    between atoms: _529  and  _530
REMARK  221  A    between atoms: _529  and  _532
REMARK  222  A    between atoms: _532  and  _533
REMARK  223  A    between atoms: _533  and  _534
REMARK  224  A    between atoms: _534  and  _535
REMARK  225  A    between atoms: _544  and  _546
REMARK  226  A    between atoms: _546  and  _547
REMARK  227  A    between atoms: _546  and  _549
REMARK  228  A    between atoms: _549  and  _550
REMARK                            x       y       z     vdW  Elec       q    Type
REMARK                         _______ _______ _______ _____ _____    ______ ____
ROOT
ATOM      1  O   HOH     1      14.993  20.859  10.947  0.00  0.00    +0.000 OA
ENDROOT
TORSDOF 0
REMARK  Name = ../refined-set-2016/2qi4/2qi4_pocket.pdb
REMARK  228 active torsions:
REMARK  status: ('A' for Active; 'I' for Inactive)
REMARK    1  A    between atoms: _1  and  _3
REMARK    2  A    between atoms: _3  and  _4
REMARK    3  A    between atoms: _3  and  _6
REMARK    4  A    between atoms: _6  and  _7
REMARK    5  A    between atoms: _7  and  _8
REMARK    6  A    between atoms: _8  and  _9
REMARK    7  A    between atoms: _18  and  _20
REMARK    8  A    between atoms: _20  and  _21
REMARK    9  A    between atoms: _20  and  _23
REMARK   10  A    between atoms: _23  and  _24
REMARK   11  A    between atoms: _27  and  _29
REMARK   12  A    between atoms: _29  and  _30
REMARK   13  A    between atoms: _29  and  _32
REMARK   14  A    between atoms: _32  and  _33
REMARK   15  A    between atoms: _36  and  _38
REMARK   16  A    between atoms: _38  and  _39
REMARK   17  A    between atoms: _38  and  _41
REMARK   18  A    between atoms: _41  and  _42
REMARK   19  A    between atoms: _45  and  _47
REMARK   20  A    between atoms: _47  and  _48
REMARK   21  A    between atoms: _47  and  _50
REMARK   22  A    between atoms: _50  and  _51
REMARK   23  A    between atoms: _54  and  _56
REMARK   24  A    between atoms: _56  and  _57
REMARK   25  A    between atoms: _59  and  _61
REMARK   26  A    between atoms: _61  and  _62
REMARK   27  A    between atoms: _65  and  _67
REMARK   28  A    between atoms: _67  and  _68
REMARK   29  A    between atoms: _67  and  _70
REMARK   30  A    between atoms: _70  and  _71
REMARK   31  A    between atoms: _74  and  _76
REMARK   32  A    between atoms: _76  and  _77
REMARK   33  A    between atoms: _76  and  _79
REMARK   34  A    between atoms: _79  and  _80
REMARK   35  A    between atoms: _83  and  _85
REMARK   36  A    between atoms: _85  and  _86
REMARK   37  A    between atoms: _85  and  _88
REMARK   38  A    between atoms: _88  and  _89
REMARK   39  A    between atoms: _92  and  _94
REMARK   40  A    between atoms: _94  and  _95
REMARK   41  A    between atoms: _94  and  _97
REMARK   42  A    between atoms: _100  and  _102
REMARK   43  A    between atoms: _102  and  _103
REMARK   44  A    between atoms: _102  and  _105
REMARK   45  A    between atoms: _105  and  _106
REMARK   46  A    between atoms: _106  and  _107
REMARK   47  A    between atoms: _107  and  _108
REMARK   48  A    between atoms: _108  and  _109
REMARK   49  A    between atoms: _113  and  _115
REMARK   50  A    between atoms: _115  and  _116
REMARK   51  A    between atoms: _115  and  _118
REMARK   52  A    between atoms: _118  and  _119
REMARK   53  A    between atoms: _119  and  _120
REMARK   54  A    between atoms: _122  and  _124
REMARK   55  A    between atoms: _124  and  _125
REMARK   56  A    between atoms: _124  and  _127
REMARK   57  A    between atoms: _127  and  _128
REMARK   58  A    between atoms: _131  and  _133
REMARK   59  A    between atoms: _133  and  _134
REMARK   60  A    between atoms: _136  and  _138
REMARK   61  A    between atoms: _138  and  _139
REMARK   62  A    between atoms: _141  and  _143
REMARK   63  A    between atoms: _143  and  _144
REMARK   64  A    between atoms: _143  and  _146
REMARK   65  A    between atoms: _146  and  _147
REMARK   66  A    between atoms: _150  and  _152
REMARK   67  A    between atoms: _152  and  _153
REMARK   68  A    between atoms: _155  and  _157
REMARK   69  A    between atoms: _157  and  _158
REMARK   70  A    between atoms: _160  and  _162
REMARK   71  A    between atoms: _162  and  _163
REMARK   72  A    between atoms: _162  and  _165
REMARK   73  A    between atoms: _165  and  _166
REMARK   74  A    between atoms: _169  and  _171
REMARK   75  A    between atoms: _171  and  _172
REMARK   76  A    between atoms: _171  and  _174
REMARK   77  A    between atoms: _177  and  _179
REMARK   78  A    between atoms: _179  and  _180
REMARK   79  A    between atoms: _179  and  _182
REMARK   80  A    between atoms: _182  and  _183
REMARK   81  A    between atoms: _186  and  _188
REMARK   82  A    between atoms: _188  and  _189
REMARK   83  A    between atoms: _188  and  _191
REMARK   84  A    between atoms: _191  and  _192
REMARK   85  A    between atoms: _196  and  _197
REMARK   86  A    between atoms: _202  and  _204
REMARK   87  A    between atoms: _204  and  _205
REMARK   88  A    between atoms: _204  and  _207
REMARK   89  A    between atoms: _210  and  _212
REMARK   90  A    between atoms: _212  and  _213
REMARK   91  A    between atoms: _212  and  _215
REMARK   92  A    between atoms: _215  and  _216
REMARK   93  A    between atoms: _221  and  _223
REMARK   94  A    between atoms: _223  and  _224
REMARK   95  A    between atoms: _223  and  _226
REMARK   96  A    between atoms: _226  and  _227
REMARK   97  A    between atoms: _230  and  _232
REMARK   98  A    between atoms: _232  and  _233
REMARK   99  A    between atoms: _232  and  _235
REMARK  100  A    between atoms: _235  and  _236
REMARK  101  A    between atoms: _239  and  _241
REMARK  102  A    between atoms: _241  and  _242
REMARK  103  A    between atoms: _244  and  _246
REMARK  104  A    between atoms: _246  and  _247
REMARK  105  A    between atoms: _246  and  _249
REMARK  106  A    between atoms: _249  and  _250
REMARK  107  A    between atoms: _250  and  _251
REMARK  108  A    between atoms: _251  and  _252
REMARK  109  A    between atoms: _261  and  _263
REMARK  110  A    between atoms: _263  and  _264
REMARK  111  A    between atoms: _263  and  _266
REMARK  112  A    between atoms: _266  and  _267
REMARK  113  A    between atoms: _272  and  _274
REMARK  114  A    between atoms: _274  and  _275
REMARK  115  A    between atoms: _274  and  _277
REMARK  116  A    between atoms: _277  and  _278
REMARK  117  A    between atoms: _278  and  _279
REMARK  118  A    between atoms: _279  and  _280
REMARK  119  A    between atoms: _289  and  _291
REMARK  120  A    between atoms: _291  and  _292
REMARK  121  A    between atoms: _291  and  _294
REMARK  122  A    between atoms: _294  and  _295
REMARK  123  A    between atoms: _298  and  _300
REMARK  124  A    between atoms: _300  and  _301
REMARK  125  A    between atoms: _300  and  _303
REMARK  126  A    between atoms: _303  and  _304
REMARK  127  A    between atoms: _307  and  _309
REMARK  128  A    between atoms: _309  and  _310
REMARK  129  A    between atoms: _309  and  _312
REMARK  130  A    between atoms: _312  and  _313
REMARK  131  A    between atoms: _316  and  _318
REMARK  132  A    between atoms: _318  and  _319
REMARK  133  A    between atoms: _318  and  _321
REMARK  134  A    between atoms: _321  and  _322
REMARK  135  A    between atoms: _325  and  _327
REMARK  136  A    between atoms: _327  and  _328
REMARK  137  A    between atoms: _330  and  _332
REMARK  138  A    between atoms: _332  and  _333
REMARK  139  A    between atoms: _336  and  _338
REMARK  140  A    between atoms: _338  and  _339
REMARK  141  A    between atoms: _338  and  _341
REMARK  142  A    between atoms: _341  and  _342
REMARK  143  A    between atoms: _345  and  _347
REMARK  144  A    between atoms: _347  and  _348
REMARK  145  A    between atoms: _347  and  _350
REMARK  146  A    between atoms: _350  and  _351
REMARK  147  A    between atoms: _354  and  _356
REMARK  148  A    between atoms: _356  and  _357
REMARK  149  A    between atoms: _356  and  _359
REMARK  150  A    between atoms: _359  and  _360
REMARK  151  A    between atoms: _363  and  _365
REMARK  152  A    between atoms: _365  and  _366
REMARK  153  A    between atoms: _365  and  _368
REMARK  154  A    between atoms: _371  and  _373
REMARK  155  A    between atoms: _373  and  _374
REMARK  156  A    between atoms: _373  and  _376
REMARK  157  A    between atoms: _376  and  _377
REMARK  158  A    between atoms: _377  and  _378
REMARK  159  A    between atoms: _378  and  _379
REMARK  160  A    between atoms: _379  and  _380
REMARK  161  A    between atoms: _384  and  _386
REMARK  162  A    between atoms: _386  and  _387
REMARK  163  A    between atoms: _386  and  _389
REMARK  164  A    between atoms: _389  and  _390
REMARK  165  A    between atoms: _390  and  _391
REMARK  166  A    between atoms: _393  and  _395
REMARK  167  A    between atoms: _395  and  _396
REMARK  168  A    between atoms: _395  and  _398
REMARK  169  A    between atoms: _398  and  _399
REMARK  170  A    between atoms: _402  and  _404
REMARK  171  A    between atoms: _404  and  _405
REMARK  172  A    between atoms: _407  and  _409
REMARK  173  A    between atoms: _409  and  _410
REMARK  174  A    between atoms: _412  and  _414
REMARK  175  A    between atoms: _414  and  _415
REMARK  176  A    between atoms: _414  and  _417
REMARK  177  A    between atoms: _417  and  _418
REMARK  178  A    between atoms: _421  and  _423
REMARK  179  A    between atoms: _423  and  _424
REMARK  180  A    between atoms: _426  and  _428
REMARK  181  A    between atoms: _428  and  _429
REMARK  182  A    between atoms: _431  and  _433
REMARK  183  A    between atoms: _433  and  _434
REMARK  184  A    between atoms: _433  and  _436
REMARK  185  A    between atoms: _436  and  _437
REMARK  186  A    between atoms: _443  and  _445
REMARK  187  A    between atoms: _445  and  _446
REMARK  188  A    between atoms: _445  and  _448
REMARK  189  A    between atoms: _448  and  _449
REMARK  190  A    between atoms: _452  and  _454
REMARK  191  A    between atoms: _454  and  _455
REMARK  192  A    between atoms: _454  and  _457
REMARK  193  A    between atoms: _460  and  _462
REMARK  194  A    between atoms: _462  and  _463
REMARK  195  A    between atoms: _462  and  _465
REMARK  196  A    between atoms: _465  and  _466
REMARK  197  A    between atoms: _469  and  _471
REMARK  198  A    between atoms: _471  and  _472
REMARK  199  A    between atoms: _471  and  _474
REMARK  200  A    between atoms: _474  and  _475
REMARK  201  A    between atoms: _479  and  _480
REMARK  202  A    between atoms: _485  and  _487
REMARK  203  A    between atoms: _487  and  _488
REMARK  204  A    between atoms: _487  and  _490
REMARK  205  A    between atoms: _493  and  _495
REMARK  206  A    between atoms: _495  and  _496
REMARK  207  A    between atoms: _495  and  _498
REMARK  208  A    between atoms: _498  and  _499
REMARK  209  A    between atoms: _504  and  _506
REMARK  210  A    between atoms: _506  and  _507
REMARK  211  A    between atoms: _506  and  _509
REMARK  212  A    between atoms: _509  and  _510
REMARK  213  A    between atoms: _513  and  _515
REMARK  214  A    between atoms: _515  and  _516
REMARK  215  A    between atoms: _515  and  _518
REMARK  216  A    between atoms: _518  and  _519
REMARK  217  A    between atoms: _522  and  _524
REMARK  218  A    between atoms: _524  and  _525
REMARK  219  A    between atoms: _527  and  _529
REMARK  220  A    between atoms: _529  and  _530
REMARK  221  A    between atoms: _529  and  _532
REMARK  222  A    between atoms: _532  and  _533
REMARK  223  A    between atoms: _533  and  _534
REMARK  224  A    between atoms: _534  and  _535
REMARK  225  A    between atoms: _544  and  _546
REMARK  226  A    between atoms: _546  and  _547
REMARK  227  A    between atoms: _546  and  _549
REMARK  228  A    between atoms: _549  and  _550
REMARK                            x       y       z     vdW  Elec       q    Type
REMARK                         _______ _______ _______ _____ _____    ______ ____
ROOT
ATOM      1  O   HOH     1      19.874  38.361  16.708  0.00  0.00    +0.000 OA
ENDROOT
TORSDOF 0
REMARK  Name = ../refined-set-2016/2qi4/2qi4_pocket.pdb
REMARK  228 active torsions:
REMARK  status: ('A' for Active; 'I' for Inactive)
REMARK    1  A    between atoms: _1  and  _3
REMARK    2  A    between atoms: _3  and  _4
REMARK    3  A    between atoms: _3  and  _6
REMARK    4  A    between atoms: _6  and  _7
REMARK    5  A    between atoms: _7  and  _8
REMARK    6  A    between atoms: _8  and  _9
REMARK    7  A    between atoms: _18  and  _20
REMARK    8  A    between atoms: _20  and  _21
REMARK    9  A    between atoms: _20  and  _23
REMARK   10  A    between atoms: _23  and  _24
REMARK   11  A    between atoms: _27  and  _29
REMARK   12  A    between atoms: _29  and  _30
REMARK   13  A    between atoms: _29  and  _32
REMARK   14  A    between atoms: _32  and  _33
REMARK   15  A    between atoms: _36  and  _38
REMARK   16  A    between atoms: _38  and  _39
REMARK   17  A    between atoms: _38  and  _41
REMARK   18  A    between atoms: _41  and  _42
REMARK   19  A    between atoms: _45  and  _47
REMARK   20  A    between atoms: _47  and  _48
REMARK   21  A    between atoms: _47  and  _50
REMARK   22  A    between atoms: _50  and  _51
REMARK   23  A    between atoms: _54  and  _56
REMARK   24  A    between atoms: _56  and  _57
REMARK   25  A    between atoms: _59  and  _61
REMARK   26  A    between atoms: _61  and  _62
REMARK   27  A    between atoms: _65  and  _67
REMARK   28  A    between atoms: _67  and  _68
REMARK   29  A    between atoms: _67  and  _70
REMARK   30  A    between atoms: _70  and  _71
REMARK   31  A    between atoms: _74  and  _76
REMARK   32  A    between atoms: _76  and  _77
REMARK   33  A    between atoms: _76  and  _79
REMARK   34  A    between atoms: _79  and  _80
REMARK   35  A    between atoms: _83  and  _85
REMARK   36  A    between atoms: _85  and  _86
REMARK   37  A    between atoms: _85  and  _88
REMARK   38  A    between atoms: _88  and  _89
REMARK   39  A    between atoms: _92  and  _94
REMARK   40  A    between atoms: _94  and  _95
REMARK   41  A    between atoms: _94  and  _97
REMARK   42  A    between atoms: _100  and  _102
REMARK   43  A    between atoms: _102  and  _103
REMARK   44  A    between atoms: _102  and  _105
REMARK   45  A    between atoms: _105  and  _106
REMARK   46  A    between atoms: _106  and  _107
REMARK   47  A    between atoms: _107  and  _108
REMARK   48  A    between atoms: _108  and  _109
REMARK   49  A    between atoms: _113  and  _115
REMARK   50  A    between atoms: _115  and  _116
REMARK   51  A    between atoms: _115  and  _118
REMARK   52  A    between atoms: _118  and  _119
REMARK   53  A    between atoms: _119  and  _120
REMARK   54  A    between atoms: _122  and  _124
REMARK   55  A    between atoms: _124  and  _125
REMARK   56  A    between atoms: _124  and  _127
REMARK   57  A    between atoms: _127  and  _128
REMARK   58  A    between atoms: _131  and  _133
REMARK   59  A    between atoms: _133  and  _134
REMARK   60  A    between atoms: _136  and  _138
REMARK   61  A    between atoms: _138  and  _139
REMARK   62  A    between atoms: _141  and  _143
REMARK   63  A    between atoms: _143  and  _144
REMARK   64  A    between atoms: _143  and  _146
REMARK   65  A    between atoms: _146  and  _147
REMARK   66  A    between atoms: _150  and  _152
REMARK   67  A    between atoms: _152  and  _153
REMARK   68  A    between atoms: _155  and  _157
REMARK   69  A    between atoms: _157  and  _158
REMARK   70  A    between atoms: _160  and  _162
REMARK   71  A    between atoms: _162  and  _163
REMARK   72  A    between atoms: _162  and  _165
REMARK   73  A    between atoms: _165  and  _166
REMARK   74  A    between atoms: _169  and  _171
REMARK   75  A    between atoms: _171  and  _172
REMARK   76  A    between atoms: _171  and  _174
REMARK   77  A    between atoms: _177  and  _179
REMARK   78  A    between atoms: _179  and  _180
REMARK   79  A    between atoms: _179  and  _182
REMARK   80  A    between atoms: _182  and  _183
REMARK   81  A    between atoms: _186  and  _188
REMARK   82  A    between atoms: _188  and  _189
REMARK   83  A    between atoms: _188  and  _191
REMARK   84  A    between atoms: _191  and  _192
REMARK   85  A    between atoms: _196  and  _197
REMARK   86  A    between atoms: _202  and  _204
REMARK   87  A    between atoms: _204  and  _205
REMARK   88  A    between atoms: _204  and  _207
REMARK   89  A    between atoms: _210  and  _212
REMARK   90  A    between atoms: _212  and  _213
REMARK   91  A    between atoms: _212  and  _215
REMARK   92  A    between atoms: _215  and  _216
REMARK   93  A    between atoms: _221  and  _223
REMARK   94  A    between atoms: _223  and  _224
REMARK   95  A    between atoms: _223  and  _226
REMARK   96  A    between atoms: _226  and  _227
REMARK   97  A    between atoms: _230  and  _232
REMARK   98  A    between atoms: _232  and  _233
REMARK   99  A    between atoms: _232  and  _235
REMARK  100  A    between atoms: _235  and  _236
REMARK  101  A    between atoms: _239  and  _241
REMARK  102  A    between atoms: _241  and  _242
REMARK  103  A    between atoms: _244  and  _246
REMARK  104  A    between atoms: _246  and  _247
REMARK  105  A    between atoms: _246  and  _249
REMARK  106  A    between atoms: _249  and  _250
REMARK  107  A    between atoms: _250  and  _251
REMARK  108  A    between atoms: _251  and  _252
REMARK  109  A    between atoms: _261  and  _263
REMARK  110  A    between atoms: _263  and  _264
REMARK  111  A    between atoms: _263  and  _266
REMARK  112  A    between atoms: _266  and  _267
REMARK  113  A    between atoms: _272  and  _274
REMARK  114  A    between atoms: _274  and  _275
REMARK  115  A    between atoms: _274  and  _277
REMARK  116  A    between atoms: _277  and  _278
REMARK  117  A    between atoms: _278  and  _279
REMARK  118  A    between atoms: _279  and  _280
REMARK  119  A    between atoms: _289  and  _291
REMARK  120  A    between atoms: _291  and  _292
REMARK  121  A    between atoms: _291  and  _294
REMARK  122  A    between atoms: _294  and  _295
REMARK  123  A    between atoms: _298  and  _300
REMARK  124  A    between atoms: _300  and  _301
REMARK  125  A    between atoms: _300  and  _303
REMARK  126  A    between atoms: _303  and  _304
REMARK  127  A    between atoms: _307  and  _309
REMARK  128  A    between atoms: _309  and  _310
REMARK  129  A    between atoms: _309  and  _312
REMARK  130  A    between atoms: _312  and  _313
REMARK  131  A    between atoms: _316  and  _318
REMARK  132  A    between atoms: _318  and  _319
REMARK  133  A    between atoms: _318  and  _321
REMARK  134  A    between atoms: _321  and  _322
REMARK  135  A    between atoms: _325  and  _327
REMARK  136  A    between atoms: _327  and  _328
REMARK  137  A    between atoms: _330  and  _332
REMARK  138  A    between atoms: _332  and  _333
REMARK  139  A    between atoms: _336  and  _338
REMARK  140  A    between atoms: _338  and  _339
REMARK  141  A    between atoms: _338  and  _341
REMARK  142  A    between atoms: _341  and  _342
REMARK  143  A    between atoms: _345  and  _347
REMARK  144  A    between atoms: _347  and  _348
REMARK  145  A    between atoms: _347  and  _350
REMARK  146  A    between atoms: _350  and  _351
REMARK  147  A    between atoms: _354  and  _356
REMARK  148  A    between atoms: _356  and  _357
REMARK  149  A    between atoms: _356  and  _359
REMARK  150  A    between atoms: _359  and  _360
REMARK  151  A    between atoms: _363  and  _365
REMARK  152  A    between atoms: _365  and  _366
REMARK  153  A    between atoms: _365  and  _368
REMARK  154  A    between atoms: _371  and  _373
REMARK  155  A    between atoms: _373  and  _374
REMARK  156  A    between atoms: _373  and  _376
REMARK  157  A    between atoms: _376  and  _377
REMARK  158  A    between atoms: _377  and  _378
REMARK  159  A    between atoms: _378  and  _379
REMARK  160  A    between atoms: _379  and  _380
REMARK  161  A    between atoms: _384  and  _386
REMARK  162  A    between atoms: _386  and  _387
REMARK  163  A    between atoms: _386  and  _389
REMARK  164  A    between atoms: _389  and  _390
REMARK  165  A    between atoms: _390  and  _391
REMARK  166  A    between atoms: _393  and  _395
REMARK  167  A    between atoms: _395  and  _396
REMARK  168  A    between atoms: _395  and  _398
REMARK  169  A    between atoms: _398  and  _399
REMARK  170  A    between atoms: _402  and  _404
REMARK  171  A    between atoms: _404  and  _405
REMARK  172  A    between atoms: _407  and  _409
REMARK  173  A    between atoms: _409  and  _410
REMARK  174  A    between atoms: _412  and  _414
REMARK  175  A    between atoms: _414  and  _415
REMARK  176  A    between atoms: _414  and  _417
REMARK  177  A    between atoms: _417  and  _418
REMARK  178  A    between atoms: _421  and  _423
REMARK  179  A    between atoms: _423  and  _424
REMARK  180  A    between atoms: _426  and  _428
REMARK  181  A    between atoms: _428  and  _429
REMARK  182  A    between atoms: _431  and  _433
REMARK  183  A    between atoms: _433  and  _434
REMARK  184  A    between atoms: _433  and  _436
REMARK  185  A    between atoms: _436  and  _437
REMARK  186  A    between atoms: _443  and  _445
REMARK  187  A    between atoms: _445  and  _446
REMARK  188  A    between atoms: _445  and  _448
REMARK  189  A    between atoms: _448  and  _449
REMARK  190  A    between atoms: _452  and  _454
REMARK  191  A    between atoms: _454  and  _455
REMARK  192  A    between atoms: _454  and  _457
REMARK  193  A    between atoms: _460  and  _462
REMARK  194  A    between atoms: _462  and  _463
REMARK  195  A    between atoms: _462  and  _465
REMARK  196  A    between atoms: _465  and  _466
REMARK  197  A    between atoms: _469  and  _471
REMARK  198  A    between atoms: _471  and  _472
REMARK  199  A    between atoms: _471  and  _474
REMARK  200  A    between atoms: _474  and  _475
REMARK  201  A    between atoms: _479  and  _480
REMARK  202  A    between atoms: _485  and  _487
REMARK  203  A    between atoms: _487  and  _488
REMARK  204  A    between atoms: _487  and  _490
REMARK  205  A    between atoms: _493  and  _495
REMARK  206  A    between atoms: _495  and  _496
REMARK  207  A    between atoms: _495  and  _498
REMARK  208  A    between atoms: _498  and  _499
REMARK  209  A    between atoms: _504  and  _506
REMARK  210  A    between atoms: _506  and  _507
REMARK  211  A    between atoms: _506  and  _509
REMARK  212  A    between atoms: _509  and  _510
REMARK  213  A    between atoms: _513  and  _515
REMARK  214  A    between atoms: _515  and  _516
REMARK  215  A    between atoms: _515  and  _518
REMARK  216  A    between atoms: _518  and  _519
REMARK  217  A    between atoms: _522  and  _524
REMARK  218  A    between atoms: _524  and  _525
REMARK  219  A    between atoms: _527  and  _529
REMARK  220  A    between atoms: _529  and  _530
REMARK  221  A    between atoms: _529  and  _532
REMARK  222  A    between atoms: _532  and  _533
REMARK  223  A    between atoms: _533  and  _534
REMARK  224  A    between atoms: _534  and  _535
REMARK  225  A    between atoms: _544  and  _546
REMARK  226  A    between atoms: _546  and  _547
REMARK  227  A    between atoms: _546  and  _549
REMARK  228  A    between atoms: _549  and  _550
REMARK                            x       y       z     vdW  Elec       q    Type
REMARK                         _______ _______ _______ _____ _____    ______ ____
ROOT
ATOM      1  O   HOH     1      20.286  19.744   9.414  0.00  0.00    +0.000 OA
ENDROOT
TORSDOF 0
REMARK  Name = ../refined-set-2016/2qi4/2qi4_pocket.pdb
REMARK  228 active torsions:
REMARK  status: ('A' for Active; 'I' for Inactive)
REMARK    1  A    between atoms: _1  and  _3
REMARK    2  A    between atoms: _3  and  _4
REMARK    3  A    between atoms: _3  and  _6
REMARK    4  A    between atoms: _6  and  _7
REMARK    5  A    between atoms: _7  and  _8
REMARK    6  A    between atoms: _8  and  _9
REMARK    7  A    between atoms: _18  and  _20
REMARK    8  A    between atoms: _20  and  _21
REMARK    9  A    between atoms: _20  and  _23
REMARK   10  A    between atoms: _23  and  _24
REMARK   11  A    between atoms: _27  and  _29
REMARK   12  A    between atoms: _29  and  _30
REMARK   13  A    between atoms: _29  and  _32
REMARK   14  A    between atoms: _32  and  _33
REMARK   15  A    between atoms: _36  and  _38
REMARK   16  A    between atoms: _38  and  _39
REMARK   17  A    between atoms: _38  and  _41
REMARK   18  A    between atoms: _41  and  _42
REMARK   19  A    between atoms: _45  and  _47
REMARK   20  A    between atoms: _47  and  _48
REMARK   21  A    between atoms: _47  and  _50
REMARK   22  A    between atoms: _50  and  _51
REMARK   23  A    between atoms: _54  and  _56
REMARK   24  A    between atoms: _56  and  _57
REMARK   25  A    between atoms: _59  and  _61
REMARK   26  A    between atoms: _61  and  _62
REMARK   27  A    between atoms: _65  and  _67
REMARK   28  A    between atoms: _67  and  _68
REMARK   29  A    between atoms: _67  and  _70
REMARK   30  A    between atoms: _70  and  _71
REMARK   31  A    between atoms: _74  and  _76
REMARK   32  A    between atoms: _76  and  _77
REMARK   33  A    between atoms: _76  and  _79
REMARK   34  A    between atoms: _79  and  _80
REMARK   35  A    between atoms: _83  and  _85
REMARK   36  A    between atoms: _85  and  _86
REMARK   37  A    between atoms: _85  and  _88
REMARK   38  A    between atoms: _88  and  _89
REMARK   39  A    between atoms: _92  and  _94
REMARK   40  A    between atoms: _94  and  _95
REMARK   41  A    between atoms: _94  and  _97
REMARK   42  A    between atoms: _100  and  _102
REMARK   43  A    between atoms: _102  and  _103
REMARK   44  A    between atoms: _102  and  _105
REMARK   45  A    between atoms: _105  and  _106
REMARK   46  A    between atoms: _106  and  _107
REMARK   47  A    between atoms: _107  and  _108
REMARK   48  A    between atoms: _108  and  _109
REMARK   49  A    between atoms: _113  and  _115
REMARK   50  A    between atoms: _115  and  _116
REMARK   51  A    between atoms: _115  and  _118
REMARK   52  A    between atoms: _118  and  _119
REMARK   53  A    between atoms: _119  and  _120
REMARK   54  A    between atoms: _122  and  _124
REMARK   55  A    between atoms: _124  and  _125
REMARK   56  A    between atoms: _124  and  _127
REMARK   57  A    between atoms: _127  and  _128
REMARK   58  A    between atoms: _131  and  _133
REMARK   59  A    between atoms: _133  and  _134
REMARK   60  A    between atoms: _136  and  _138
REMARK   61  A    between atoms: _138  and  _139
REMARK   62  A    between atoms: _141  and  _143
REMARK   63  A    between atoms: _143  and  _144
REMARK   64  A    between atoms: _143  and  _146
REMARK   65  A    between atoms: _146  and  _147
REMARK   66  A    between atoms: _150  and  _152
REMARK   67  A    between atoms: _152  and  _153
REMARK   68  A    between atoms: _155  and  _157
REMARK   69  A    between atoms: _157  and  _158
REMARK   70  A    between atoms: _160  and  _162
REMARK   71  A    between atoms: _162  and  _163
REMARK   72  A    between atoms: _162  and  _165
REMARK   73  A    between atoms: _165  and  _166
REMARK   74  A    between atoms: _169  and  _171
REMARK   75  A    between atoms: _171  and  _172
REMARK   76  A    between atoms: _171  and  _174
REMARK   77  A    between atoms: _177  and  _179
REMARK   78  A    between atoms: _179  and  _180
REMARK   79  A    between atoms: _179  and  _182
REMARK   80  A    between atoms: _182  and  _183
REMARK   81  A    between atoms: _186  and  _188
REMARK   82  A    between atoms: _188  and  _189
REMARK   83  A    between atoms: _188  and  _191
REMARK   84  A    between atoms: _191  and  _192
REMARK   85  A    between atoms: _196  and  _197
REMARK   86  A    between atoms: _202  and  _204
REMARK   87  A    between atoms: _204  and  _205
REMARK   88  A    between atoms: _204  and  _207
REMARK   89  A    between atoms: _210  and  _212
REMARK   90  A    between atoms: _212  and  _213
REMARK   91  A    between atoms: _212  and  _215
REMARK   92  A    between atoms: _215  and  _216
REMARK   93  A    between atoms: _221  and  _223
REMARK   94  A    between atoms: _223  and  _224
REMARK   95  A    between atoms: _223  and  _226
REMARK   96  A    between atoms: _226  and  _227
REMARK   97  A    between atoms: _230  and  _232
REMARK   98  A    between atoms: _232  and  _233
REMARK   99  A    between atoms: _232  and  _235
REMARK  100  A    between atoms: _235  and  _236
REMARK  101  A    between atoms: _239  and  _241
REMARK  102  A    between atoms: _241  and  _242
REMARK  103  A    between atoms: _244  and  _246
REMARK  104  A    between atoms: _246  and  _247
REMARK  105  A    between atoms: _246  and  _249
REMARK  106  A    between atoms: _249  and  _250
REMARK  107  A    between atoms: _250  and  _251
REMARK  108  A    between atoms: _251  and  _252
REMARK  109  A    between atoms: _261  and  _263
REMARK  110  A    between atoms: _263  and  _264
REMARK  111  A    between atoms: _263  and  _266
REMARK  112  A    between atoms: _266  and  _267
REMARK  113  A    between atoms: _272  and  _274
REMARK  114  A    between atoms: _274  and  _275
REMARK  115  A    between atoms: _274  and  _277
REMARK  116  A    between atoms: _277  and  _278
REMARK  117  A    between atoms: _278  and  _279
REMARK  118  A    between atoms: _279  and  _280
REMARK  119  A    between atoms: _289  and  _291
REMARK  120  A    between atoms: _291  and  _292
REMARK  121  A    between atoms: _291  and  _294
REMARK  122  A    between atoms: _294  and  _295
REMARK  123  A    between atoms: _298  and  _300
REMARK  124  A    between atoms: _300  and  _301
REMARK  125  A    between atoms: _300  and  _303
REMARK  126  A    between atoms: _303  and  _304
REMARK  127  A    between atoms: _307  and  _309
REMARK  128  A    between atoms: _309  and  _310
REMARK  129  A    between atoms: _309  and  _312
REMARK  130  A    between atoms: _312  and  _313
REMARK  131  A    between atoms: _316  and  _318
REMARK  132  A    between atoms: _318  and  _319
REMARK  133  A    between atoms: _318  and  _321
REMARK  134  A    between atoms: _321  and  _322
REMARK  135  A    between atoms: _325  and  _327
REMARK  136  A    between atoms: _327  and  _328
REMARK  137  A    between atoms: _330  and  _332
REMARK  138  A    between atoms: _332  and  _333
REMARK  139  A    between atoms: _336  and  _338
REMARK  140  A    between atoms: _338  and  _339
REMARK  141  A    between atoms: _338  and  _341
REMARK  142  A    between atoms: _341  and  _342
REMARK  143  A    between atoms: _345  and  _347
REMARK  144  A    between atoms: _347  and  _348
REMARK  145  A    between atoms: _347  and  _350
REMARK  146  A    between atoms: _350  and  _351
REMARK  147  A    between atoms: _354  and  _356
REMARK  148  A    between atoms: _356  and  _357
REMARK  149  A    between atoms: _356  and  _359
REMARK  150  A    between atoms: _359  and  _360
REMARK  151  A    between atoms: _363  and  _365
REMARK  152  A    between atoms: _365  and  _366
REMARK  153  A    between atoms: _365  and  _368
REMARK  154  A    between atoms: _371  and  _373
REMARK  155  A    between atoms: _373  and  _374
REMARK  156  A    between atoms: _373  and  _376
REMARK  157  A    between atoms: _376  and  _377
REMARK  158  A    between atoms: _377  and  _378
REMARK  159  A    between atoms: _378  and  _379
REMARK  160  A    between atoms: _379  and  _380
REMARK  161  A    between atoms: _384  and  _386
REMARK  162  A    between atoms: _386  and  _387
REMARK  163  A    between atoms: _386  and  _389
REMARK  164  A    between atoms: _389  and  _390
REMARK  165  A    between atoms: _390  and  _391
REMARK  166  A    between atoms: _393  and  _395
REMARK  167  A    between atoms: _395  and  _396
REMARK  168  A    between atoms: _395  and  _398
REMARK  169  A    between atoms: _398  and  _399
REMARK  170  A    between atoms: _402  and  _404
REMARK  171  A    between atoms: _404  and  _405
REMARK  172  A    between atoms: _407  and  _409
REMARK  173  A    between atoms: _409  and  _410
REMARK  174  A    between atoms: _412  and  _414
REMARK  175  A    between atoms: _414  and  _415
REMARK  176  A    between atoms: _414  and  _417
REMARK  177  A    between atoms: _417  and  _418
REMARK  178  A    between atoms: _421  and  _423
REMARK  179  A    between atoms: _423  and  _424
REMARK  180  A    between atoms: _426  and  _428
REMARK  181  A    between atoms: _428  and  _429
REMARK  182  A    between atoms: _431  and  _433
REMARK  183  A    between atoms: _433  and  _434
REMARK  184  A    between atoms: _433  and  _436
REMARK  185  A    between atoms: _436  and  _437
REMARK  186  A    between atoms: _443  and  _445
REMARK  187  A    between atoms: _445  and  _446
REMARK  188  A    between atoms: _445  and  _448
REMARK  189  A    between atoms: _448  and  _449
REMARK  190  A    between atoms: _452  and  _454
REMARK  191  A    between atoms: _454  and  _455
REMARK  192  A    between atoms: _454  and  _457
REMARK  193  A    between atoms: _460  and  _462
REMARK  194  A    between atoms: _462  and  _463
REMARK  195  A    between atoms: _462  and  _465
REMARK  196  A    between atoms: _465  and  _466
REMARK  197  A    between atoms: _469  and  _471
REMARK  198  A    between atoms: _471  and  _472
REMARK  199  A    between atoms: _471  and  _474
REMARK  200  A    between atoms: _474  and  _475
REMARK  201  A    between atoms: _479  and  _480
REMARK  202  A    between atoms: _485  and  _487
REMARK  203  A    between atoms: _487  and  _488
REMARK  204  A    between atoms: _487  and  _490
REMARK  205  A    between atoms: _493  and  _495
REMARK  206  A    between atoms: _495  and  _496
REMARK  207  A    between atoms: _495  and  _498
REMARK  208  A    between atoms: _498  and  _499
REMARK  209  A    between atoms: _504  and  _506
REMARK  210  A    between atoms: _506  and  _507
REMARK  211  A    between atoms: _506  and  _509
REMARK  212  A    between atoms: _509  and  _510
REMARK  213  A    between atoms: _513  and  _515
REMARK  214  A    between atoms: _515  and  _516
REMARK  215  A    between atoms: _515  and  _518
REMARK  216  A    between atoms: _518  and  _519
REMARK  217  A    between atoms: _522  and  _524
REMARK  218  A    between atoms: _524  and  _525
REMARK  219  A    between atoms: _527  and  _529
REMARK  220  A    between atoms: _529  and  _530
REMARK  221  A    between atoms: _529  and  _532
REMARK  222  A    between atoms: _532  and  _533
REMARK  223  A    between atoms: _533  and  _534
REMARK  224  A    between atoms: _534  and  _535
REMARK  225  A    between atoms: _544  and  _546
REMARK  226  A    between atoms: _546  and  _547
REMARK  227  A    between atoms: _546  and  _549
REMARK  228  A    between atoms: _549  and  _550
REMARK                            x       y       z     vdW  Elec       q    Type
REMARK                         _______ _______ _______ _____ _____    ______ ____
ROOT
ATOM      1  O   HOH     1      15.869  43.372  16.363  0.00  0.00    +0.000 OA
ENDROOT
TORSDOF 0
