REMARK  Name = ../refined-set-2016/3p8z/3p8z_pocket.pdb
REMARK  249 active torsions:
REMARK  status: ('A' for Active; 'I' for Inactive)
REMARK    1  A    between atoms: _1  and  _3
REMARK    2  A    between atoms: _3  and  _4
REMARK    3  A    between atoms: _7  and  _9
REMARK    4  A    between atoms: _9  and  _10
REMARK    5  A    between atoms: _9  and  _12
REMARK    6  A    between atoms: _15  and  _17
REMARK    7  A    between atoms: _17  and  _18
REMARK    8  A    between atoms: _17  and  _20
REMARK    9  A    between atoms: _20  and  _21
REMARK   10  A    between atoms: _23  and  _25
REMARK   11  A    between atoms: _25  and  _26
REMARK   12  A    between atoms: _25  and  _28
REMARK   13  A    between atoms: _28  and  _29
REMARK   14  A    between atoms: _29  and  _30
REMARK   15  A    between atoms: _30  and  _31
REMARK   16  A    between atoms: _40  and  _42
REMARK   17  A    between atoms: _42  and  _43
REMARK   18  A    between atoms: _45  and  _47
REMARK   19  A    between atoms: _47  and  _48
REMARK   20  A    between atoms: _47  and  _50
REMARK   21  A    between atoms: _50  and  _51
REMARK   22  A    between atoms: _53  and  _55
REMARK   23  A    between atoms: _55  and  _56
REMARK   24  A    between atoms: _59  and  _61
REMARK   25  A    between atoms: _61  and  _62
REMARK   26  A    between atoms: _61  and  _64
REMARK   27  A    between atoms: _64  and  _65
REMARK   28  A    between atoms: _65  and  _66
REMARK   29  A    between atoms: _66  and  _67
REMARK   30  A    between atoms: _67  and  _68
REMARK   31  A    between atoms: _72  and  _74
REMARK   32  A    between atoms: _74  and  _75
REMARK   33  A    between atoms: _74  and  _77
REMARK   34  A    between atoms: _77  and  _78
REMARK   35  A    between atoms: _81  and  _83
REMARK   36  A    between atoms: _83  and  _84
REMARK   37  A    between atoms: _83  and  _86
REMARK   38  A    between atoms: _86  and  _87
REMARK   39  A    between atoms: _87  and  _88
REMARK   40  A    between atoms: _93  and  _95
REMARK   41  A    between atoms: _95  and  _96
REMARK   42  A    between atoms: _95  and  _98
REMARK   43  A    between atoms: _98  and  _99
REMARK   44  A    between atoms: _102  and  _104
REMARK   45  A    between atoms: _104  and  _105
REMARK   46  A    between atoms: _104  and  _107
REMARK   47  A    between atoms: _107  and  _108
REMARK   48  A    between atoms: _111  and  _113
REMARK   49  A    between atoms: _113  and  _114
REMARK   50  A    between atoms: _116  and  _118
REMARK   51  A    between atoms: _118  and  _119
REMARK   52  A    between atoms: _118  and  _121
REMARK   53  A    between atoms: _123  and  _125
REMARK   54  A    between atoms: _125  and  _126
REMARK   55  A    between atoms: _128  and  _130
REMARK   56  A    between atoms: _130  and  _131
REMARK   57  A    between atoms: _130  and  _133
REMARK   58  A    between atoms: _133  and  _134
REMARK   59  A    between atoms: _134  and  _135
REMARK   60  A    between atoms: _135  and  _136
REMARK   61  A    between atoms: _145  and  _147
REMARK   62  A    between atoms: _147  and  _148
REMARK   63  A    between atoms: _150  and  _152
REMARK   64  A    between atoms: _152  and  _153
REMARK   65  A    between atoms: _155  and  _157
REMARK   66  A    between atoms: _157  and  _158
REMARK   67  A    between atoms: _157  and  _160
REMARK   68  A    between atoms: _160  and  _161
REMARK   69  A    between atoms: _171  and  _173
REMARK   70  A    between atoms: _173  and  _174
REMARK   71  A    between atoms: _173  and  _176
REMARK   72  A    between atoms: _176  and  _177
REMARK   73  A    between atoms: _179  and  _181
REMARK   74  A    between atoms: _181  and  _182
REMARK   75  A    between atoms: _181  and  _184
REMARK   76  A    between atoms: _184  and  _185
REMARK   77  A    between atoms: _190  and  _191
REMARK   78  A    between atoms: _193  and  _195
REMARK   79  A    between atoms: _195  and  _196
REMARK   80  A    between atoms: _195  and  _198
REMARK   81  A    between atoms: _198  and  _199
REMARK   82  A    between atoms: _204  and  _205
REMARK   83  A    between atoms: _207  and  _209
REMARK   84  A    between atoms: _209  and  _210
REMARK   85  A    between atoms: _209  and  _212
REMARK   86  A    between atoms: _212  and  _213
REMARK   87  A    between atoms: _218  and  _219
REMARK   88  A    between atoms: _221  and  _223
REMARK   89  A    between atoms: _223  and  _224
REMARK   90  A    between atoms: _223  and  _226
REMARK   91  A    between atoms: _226  and  _227
REMARK   92  A    between atoms: _230  and  _232
REMARK   93  A    between atoms: _232  and  _233
REMARK   94  A    between atoms: _232  and  _235
REMARK   95  A    between atoms: _235  and  _236
REMARK   96  A    between atoms: _236  and  _237
REMARK   97  A    between atoms: _237  and  _238
REMARK   98  A    between atoms: _238  and  _239
REMARK   99  A    between atoms: _243  and  _245
REMARK  100  A    between atoms: _245  and  _246
REMARK  101  A    between atoms: _248  and  _250
REMARK  102  A    between atoms: _250  and  _251
REMARK  103  A    between atoms: _254  and  _255
REMARK  104  A    between atoms: _260  and  _262
REMARK  105  A    between atoms: _262  and  _263
REMARK  106  A    between atoms: _265  and  _267
REMARK  107  A    between atoms: _267  and  _268
REMARK  108  A    between atoms: _267  and  _270
REMARK  109  A    between atoms: _270  and  _271
REMARK  110  A    between atoms: _276  and  _278
REMARK  111  A    between atoms: _278  and  _279
REMARK  112  A    between atoms: _278  and  _281
REMARK  113  A    between atoms: _281  and  _282
REMARK  114  A    between atoms: _282  and  _283
REMARK  115  A    between atoms: _286  and  _288
REMARK  116  A    between atoms: _288  and  _289
REMARK  117  A    between atoms: _288  and  _291
REMARK  118  A    between atoms: _291  and  _292
REMARK  119  A    between atoms: _292  and  _293
REMARK  120  A    between atoms: _297  and  _298
REMARK  121  A    between atoms: _303  and  _305
REMARK  122  A    between atoms: _305  and  _306
REMARK  123  A    between atoms: _305  and  _308
REMARK  124  A    between atoms: _311  and  _313
REMARK  125  A    between atoms: _313  and  _314
REMARK  126  A    between atoms: _313  and  _316
REMARK  127  A    between atoms: _316  and  _317
REMARK  128  A    between atoms: _317  and  _318
REMARK  129  A    between atoms: _320  and  _322
REMARK  130  A    between atoms: _322  and  _323
REMARK  131  A    between atoms: _322  and  _325
REMARK  132  A    between atoms: _325  and  _326
REMARK  133  A    between atoms: _328  and  _330
REMARK  134  A    between atoms: _330  and  _331
REMARK  135  A    between atoms: _333  and  _335
REMARK  136  A    between atoms: _335  and  _336
REMARK  137  A    between atoms: _335  and  _338
REMARK  138  A    between atoms: _338  and  _339
REMARK  139  A    between atoms: _339  and  _340
REMARK  140  A    between atoms: _340  and  _341
REMARK  141  A    between atoms: _341  and  _342
REMARK  142  A    between atoms: _346  and  _348
REMARK  143  A    between atoms: _348  and  _349
REMARK  144  A    between atoms: _348  and  _351
REMARK  145  A    between atoms: _351  and  _352
REMARK  146  A    between atoms: _355  and  _357
REMARK  147  A    between atoms: _357  and  _358
REMARK  148  A    between atoms: _357  and  _360
REMARK  149  A    between atoms: _363  and  _365
REMARK  150  A    between atoms: _365  and  _366
REMARK  151  A    between atoms: _365  and  _368
REMARK  152  A    between atoms: _368  and  _369
REMARK  153  A    between atoms: _375  and  _377
REMARK  154  A    between atoms: _377  and  _378
REMARK  155  A    between atoms: _377  and  _380
REMARK  156  A    between atoms: _380  and  _381
REMARK  157  A    between atoms: _386  and  _387
REMARK  158  A    between atoms: _389  and  _391
REMARK  159  A    between atoms: _391  and  _392
REMARK  160  A    between atoms: _391  and  _394
REMARK  161  A    between atoms: _394  and  _395
REMARK  162  A    between atoms: _398  and  _400
REMARK  163  A    between atoms: _400  and  _401
REMARK  164  A    between atoms: _400  and  _403
REMARK  165  A    between atoms: _403  and  _404
REMARK  166  A    between atoms: _407  and  _409
REMARK  167  A    between atoms: _409  and  _410
REMARK  168  A    between atoms: _409  and  _412
REMARK  169  A    between atoms: _414  and  _416
REMARK  170  A    between atoms: _416  and  _417
REMARK  171  A    between atoms: _416  and  _419
REMARK  172  A    between atoms: _419  and  _420
REMARK  173  A    between atoms: _423  and  _425
REMARK  174  A    between atoms: _425  and  _426
REMARK  175  A    between atoms: _425  and  _428
REMARK  176  A    between atoms: _428  and  _429
REMARK  177  A    between atoms: _432  and  _434
REMARK  178  A    between atoms: _434  and  _435
REMARK  179  A    between atoms: _437  and  _439
REMARK  180  A    between atoms: _439  and  _440
REMARK  181  A    between atoms: _439  and  _442
REMARK  182  A    between atoms: _442  and  _443
REMARK  183  A    between atoms: _443  and  _444
REMARK  184  A    between atoms: _447  and  _449
REMARK  185  A    between atoms: _449  and  _450
REMARK  186  A    between atoms: _449  and  _452
REMARK  187  A    between atoms: _452  and  _453
REMARK  188  A    between atoms: _455  and  _457
REMARK  189  A    between atoms: _457  and  _458
REMARK  190  A    between atoms: _457  and  _460
REMARK  191  A    between atoms: _460  and  _461
REMARK  192  A    between atoms: _461  and  _462
REMARK  193  A    between atoms: _462  and  _463
REMARK  194  A    between atoms: _472  and  _474
REMARK  195  A    between atoms: _474  and  _475
REMARK  196  A    between atoms: _474  and  _477
REMARK  197  A    between atoms: _477  and  _478
REMARK  198  A    between atoms: _481  and  _483
REMARK  199  A    between atoms: _483  and  _484
REMARK  200  A    between atoms: _483  and  _486
REMARK  201  A    between atoms: _486  and  _487
REMARK  202  A    between atoms: _490  and  _492
REMARK  203  A    between atoms: _492  and  _493
REMARK  204  A    between atoms: _492  and  _495
REMARK  205  A    between atoms: _495  and  _496
REMARK  206  A    between atoms: _496  and  _497
REMARK  207  A    between atoms: _497  and  _498
REMARK  208  A    between atoms: _507  and  _509
REMARK  209  A    between atoms: _509  and  _510
REMARK  210  A    between atoms: _509  and  _512
REMARK  211  A    between atoms: _515  and  _517
REMARK  212  A    between atoms: _517  and  _518
REMARK  213  A    between atoms: _517  and  _520
REMARK  214  A    between atoms: _520  and  _521
REMARK  215  A    between atoms: _524  and  _526
REMARK  216  A    between atoms: _526  and  _527
REMARK  217  A    between atoms: _526  and  _529
REMARK  218  A    between atoms: _529  and  _530
REMARK  219  A    between atoms: _530  and  _531
REMARK  220  A    between atoms: _531  and  _532
REMARK  221  A    between atoms: _532  and  _533
REMARK  222  A    between atoms: _537  and  _539
REMARK  223  A    between atoms: _539  and  _540
REMARK  224  A    between atoms: _539  and  _542
REMARK  225  A    between atoms: _542  and  _543
REMARK  226  A    between atoms: _543  and  _544
REMARK  227  A    between atoms: _546  and  _548
REMARK  228  A    between atoms: _548  and  _549
REMARK  229  A    between atoms: _548  and  _551
REMARK  230  A    between atoms: _554  and  _556
REMARK  231  A    between atoms: _556  and  _557
REMARK  232  A    between atoms: _556  and  _559
REMARK  233  A    between atoms: _559  and  _560
REMARK  234  A    between atoms: _570  and  _572
REMARK  235  A    between atoms: _572  and  _573
REMARK  236  A    between atoms: _572  and  _575
REMARK  237  A    between atoms: _575  and  _576
REMARK  238  A    between atoms: _576  and  _577
REMARK  239  A    between atoms: _577  and  _578
REMARK  240  A    between atoms: _578  and  _579
REMARK  241  A    between atoms: _583  and  _585
REMARK  242  A    between atoms: _585  and  _586
REMARK  243  A    between atoms: _585  and  _588
REMARK  244  A    between atoms: _588  and  _589
REMARK  245  A    between atoms: _592  and  _594
REMARK  246  A    between atoms: _594  and  _595
REMARK  247  A    between atoms: _594  and  _597
REMARK  248  A    between atoms: _597  and  _598
REMARK  249  A    between atoms: _603  and  _604
REMARK                            x       y       z     vdW  Elec       q    Type
REMARK                         _______ _______ _______ _____ _____    ______ ____
ROOT
ATOM      1  C   GLY A   5       7.318 -12.202  46.642  0.00  0.00    +0.243 C 
ATOM      2  N   SER A   6       8.388 -12.474  47.393  0.00  0.00    -0.295 N 
ATOM      3  H   SER A   6       8.628 -11.864  48.200  0.00  0.00    +0.150 HD
ATOM      4  O   GLY A   5       6.975 -12.875  45.674  0.00  0.00    -0.273 OA
ENDROOT
BRANCH   1   5
ATOM      5  CA  GLY A   5       6.514 -10.963  47.029  0.00  0.00    +0.176 C 
BRANCH   5   8
ATOM      6  C   ARG A   4       5.844 -11.570  49.310  0.00  0.00    +0.241 C 
ATOM      7  O   ARG A   4       5.360 -12.663  48.943  0.00  0.00    -0.273 OA
ATOM      8  N   GLY A   5       6.478 -10.746  48.463  0.00  0.00    -0.295 N 
ATOM      9  H   GLY A   5       6.966  -9.914  48.852  0.00  0.00    +0.150 HD
BRANCH   6  10
ATOM     10  CA  ARG A   4       5.782 -11.139  50.779  0.00  0.00    +0.149 C 
BRANCH  10  12
ATOM     11  C   SER A   3       7.969 -10.034  51.020  0.00  0.00    +0.243 C 
ATOM     12  N   ARG A   4       6.637  -9.947  51.078  0.00  0.00    -0.297 N 
ATOM     13  H   ARG A   4       6.190  -9.043  51.333  0.00  0.00    +0.150 HD
ATOM     14  O   SER A   3       8.558 -11.099  50.819  0.00  0.00    -0.273 OA
BRANCH  11  15
ATOM     15  CA  SER A   3       8.733  -8.708  51.142  0.00  0.00    +0.178 C 
BRANCH  15  18
ATOM     16  C   VAL A   2      11.024  -8.098  51.775  0.00  0.00    +0.241 C 
ATOM     17  O   VAL A   2      10.657  -7.082  52.373  0.00  0.00    -0.273 OA
ATOM     18  N   SER A   3      10.180  -8.936  51.155  0.00  0.00    -0.295 N 
ATOM     19  H   SER A   3      10.564  -9.772  50.669  0.00  0.00    +0.150 HD
BRANCH  16  20
ATOM     20  CA  VAL A   2      12.511  -8.453  51.725  0.00  0.00    +0.148 C 
BRANCH  20  23
ATOM     21  C   ALA A   1      12.570 -10.812  52.235  0.00  0.00    +0.238 C 
ATOM     22  O   ALA A   1      12.107 -10.609  53.361  0.00  0.00    -0.274 OA
ATOM     23  N   VAL A   2      12.772  -9.829  51.364  0.00  0.00    -0.297 N 
ATOM     24  H   VAL A   2      13.122 -10.052  50.410  0.00  0.00    +0.150 HD
BRANCH  21  25
ATOM     25  CA  ALA A   1      12.961 -12.228  51.763  0.00  0.00    +0.145 C 
ATOM     26  CB  ALA A   1      11.701 -12.996  51.197  0.00  0.00    +0.028 C 
BRANCH  25  27
ATOM     27  N   ALA A   1      13.581 -12.938  52.889  0.00  0.00    -0.238 NA
ATOM     28  H   ALA A   1      13.037 -13.664  53.397  0.00  0.00    +0.142 HD
ENDBRANCH  25  27
ENDBRANCH  21  25
ENDBRANCH  20  23
BRANCH  20  29
ATOM     29  CB  VAL A   2      13.238  -7.472  50.755  0.00  0.00    +0.027 C 
ATOM     30  CG2 VAL A   2      14.744  -7.722  50.766  0.00  0.00    +0.002 C 
ATOM     31  CG1 VAL A   2      12.685  -7.568  49.337  0.00  0.00    +0.002 C 
ENDBRANCH  20  29
ENDBRANCH  16  20
ENDBRANCH  15  18
BRANCH  15  32
ATOM     32  CB  SER A   3       8.335  -7.819  49.953  0.00  0.00    +0.166 C 
BRANCH  32  33
ATOM     33  OG  SER A   3       8.463  -8.528  48.722  0.00  0.00    -0.380 OA
ATOM     34  H   SER A   3       8.202  -7.936  47.973  0.00  0.00    +0.211 HD
ENDBRANCH  32  33
ENDBRANCH  15  32
ENDBRANCH  11  15
ENDBRANCH  10  12
BRANCH  10  35
ATOM     35  CB  ARG A   4       4.313 -10.855  51.147  0.00  0.00    +0.033 C 
BRANCH  35  36
ATOM     36  CG  ARG A   4       4.069 -10.717  52.630  0.00  0.00    +0.045 C 
BRANCH  36  37
ATOM     37  CD  ARG A   4       2.602 -10.379  52.947  0.00  0.00    +0.174 C 
BRANCH  37  38
ATOM     38  NE  ARG A   4       2.469 -10.251  54.391  0.00  0.00    -0.265 N 
ATOM     39  CZ  ARG A   4       2.372 -11.276  55.237  0.00  0.00    +0.342 C 
ATOM     40  NH2 ARG A   4       2.293 -11.040  56.532  0.00  0.00    -0.292 N 
ATOM     41 HH21 ARG A   4       2.217 -11.832  57.201  0.00  0.00    +0.255 HD
ATOM     42 HH22 ARG A   4       2.307 -10.061  56.884  0.00  0.00    +0.255 HD
ATOM     43  NH1 ARG A   4       2.351 -12.543  54.803  0.00  0.00    -0.292 N 
ATOM     44 HH11 ARG A   4       2.275 -13.325  55.484  0.00  0.00    +0.255 HD
ATOM     45 HH12 ARG A   4       2.411 -12.745  53.785  0.00  0.00    +0.255 HD
ATOM     46  HE  ARG A   4       2.448  -9.291  54.791  0.00  0.00    +0.259 HD
ENDBRANCH  37  38
ENDBRANCH  36  37
ENDBRANCH  35  36
ENDBRANCH  10  35
ENDBRANCH   6  10
ENDBRANCH   5   8
ENDBRANCH   1   5
BRANCH   2  47
ATOM     47  CA  SER A   6       9.227 -13.642  47.074  0.00  0.00    +0.178 C 
BRANCH  47  48
ATOM     48  C   SER A   6       8.352 -14.898  47.131  0.00  0.00    +0.243 C 
ATOM     49  N   ALA A   7       7.573 -15.041  48.194  0.00  0.00    -0.297 N 
ATOM     50  H   ALA A   7       7.569 -14.321  48.944  0.00  0.00    +0.150 HD
ATOM     51  O   SER A   6       8.329 -15.682  46.177  0.00  0.00    -0.273 OA
BRANCH  49  52
ATOM     52  CA  ALA A   7       6.709 -16.239  48.300  0.00  0.00    +0.149 C 
ATOM     53  CB  ALA A   7       6.130 -16.365  49.714  0.00  0.00    +0.031 C 
BRANCH  52  54
ATOM     54  C   ALA A   7       5.611 -16.238  47.240  0.00  0.00    +0.241 C 
ATOM     55  N   LYS A   8       5.106 -15.048  46.901  0.00  0.00    -0.297 N 
ATOM     56  H   LYS A   8       5.483 -14.187  47.347  0.00  0.00    +0.150 HD
ATOM     57  O   ALA A   7       5.202 -17.297  46.737  0.00  0.00    -0.273 OA
BRANCH  55  58
ATOM     58  CA  LYS A   8       4.028 -14.934  45.910  0.00  0.00    +0.149 C 
BRANCH  58  59
ATOM     59  C   LYS A   8       4.510 -15.414  44.526  0.00  0.00    +0.241 C 
ATOM     60  N   LEU A   9       5.698 -14.979  44.140  0.00  0.00    -0.297 N 
ATOM     61  H   LEU A   9       6.251 -14.344  44.750  0.00  0.00    +0.150 HD
ATOM     62  O   LYS A   8       3.831 -16.175  43.818  0.00  0.00    -0.273 OA
BRANCH  60  63
ATOM     63  CA  LEU A   9       6.222 -15.403  42.844  0.00  0.00    +0.149 C 
BRANCH  63  64
ATOM     64  C   LEU A   9       6.605 -16.898  42.885  0.00  0.00    +0.241 C 
ATOM     65  N   GLN A  10       7.215 -17.294  43.989  0.00  0.00    -0.298 N 
ATOM     66  H   GLN A  10       7.470 -16.587  44.708  0.00  0.00    +0.150 HD
ATOM     67  O   LEU A   9       6.383 -17.636  41.914  0.00  0.00    -0.273 OA
BRANCH  65  68
ATOM     68  CA  GLN A  10       7.545 -18.721  44.229  0.00  0.00    +0.137 C 
BRANCH  68  69
ATOM     69  C   GLN A  10       6.359 -19.644  43.968  0.00  0.00    +0.227 C 
ATOM     70  O   GLN A  10       6.513 -20.728  43.393  0.00  0.00    -0.286 OA
ENDBRANCH  68  69
BRANCH  68  71
ATOM     71  CB  GLN A  10       8.078 -18.916  45.644  0.00  0.00    +0.037 C 
BRANCH  71  72
ATOM     72  CG  GLN A  10       8.393 -20.372  45.960  0.00  0.00    +0.087 C 
BRANCH  72  73
ATOM     73  CD  GLN A  10       8.737 -20.576  47.408  0.00  0.00    +0.219 C 
ATOM     74  OE1 GLN A  10       7.954 -20.247  48.303  0.00  0.00    -0.275 OA
ATOM     75  NE2 GLN A  10       9.916 -21.107  47.657  0.00  0.00    -0.329 N 
ATOM     76 HE21 GLN A  10      10.219 -21.264  48.640  0.00  0.00    +0.145 HD
ATOM     77 HE22 GLN A  10      10.545 -21.370  46.871  0.00  0.00    +0.145 HD
ENDBRANCH  72  73
ENDBRANCH  71  72
ENDBRANCH  68  71
ENDBRANCH  65  68
ENDBRANCH  63  64
BRANCH  63  78
ATOM     78  CB  LEU A   9       7.476 -14.591  42.451  0.00  0.00    +0.029 C 
BRANCH  78  79
ATOM     79  CG  LEU A   9       8.048 -14.901  41.048  0.00  0.00    +0.002 C 
ATOM     80  CD2 LEU A   9       9.190 -13.917  40.714  0.00  0.00    +0.000 C 
ATOM     81  CD1 LEU A   9       7.067 -14.937  39.931  0.00  0.00    +0.000 C 
ENDBRANCH  78  79
ENDBRANCH  63  78
ENDBRANCH  60  63
ENDBRANCH  58  59
BRANCH  58  82
ATOM     82  CB  LYS A   8       3.558 -13.485  45.823  0.00  0.00    +0.029 C 
BRANCH  82  83
ATOM     83  CG  LYS A   8       2.213 -13.344  45.121  0.00  0.00    +0.000 C 
BRANCH  83  84
ATOM     84  CD  LYS A   8       1.774 -11.916  45.295  0.00  0.00    -0.024 C 
BRANCH  84  85
ATOM     85  CE  LYS A   8       0.351 -11.707  44.863  0.00  0.00    -0.086 C 
BRANCH  85  86
ATOM     86  NZ  LYS A   8       0.131 -10.209  45.016  0.00  0.00    +0.380 N 
ATOM     87  HZ1 LYS A   8       0.282  -9.937  46.008  0.00  0.00    -0.089 HD
ATOM     88  HZ2 LYS A   8      -0.842  -9.972  44.735  0.00  0.00    -0.089 HD
ATOM     89  HZ3 LYS A   8       0.803  -9.697  44.409  0.00  0.00    -0.089 HD
ENDBRANCH  85  86
ENDBRANCH  84  85
ENDBRANCH  83  84
ENDBRANCH  82  83
ENDBRANCH  58  82
ENDBRANCH  55  58
ENDBRANCH  52  54
ENDBRANCH  49  52
ENDBRANCH  47  48
BRANCH  47  90
ATOM     90  CB  SER A   6      10.367 -13.764  48.062  0.00  0.00    +0.166 C 
BRANCH  90  91
ATOM     91  OG  SER A   6      11.252 -12.659  47.974  0.00  0.00    -0.380 OA
ATOM     92  H   SER A   6      11.632 -12.614  47.061  0.00  0.00    +0.211 HD
ENDBRANCH  90  91
ENDBRANCH  47  90
ENDBRANCH   2  47
TORSDOF 39
REMARK  Name = ../refined-set-2016/3p8z/3p8z_pocket.pdb
REMARK  249 active torsions:
REMARK  status: ('A' for Active; 'I' for Inactive)
REMARK    1  A    between atoms: _1  and  _3
REMARK    2  A    between atoms: _3  and  _4
REMARK    3  A    between atoms: _7  and  _9
REMARK    4  A    between atoms: _9  and  _10
REMARK    5  A    between atoms: _9  and  _12
REMARK    6  A    between atoms: _15  and  _17
REMARK    7  A    between atoms: _17  and  _18
REMARK    8  A    between atoms: _17  and  _20
REMARK    9  A    between atoms: _20  and  _21
REMARK   10  A    between atoms: _23  and  _25
REMARK   11  A    between atoms: _25  and  _26
REMARK   12  A    between atoms: _25  and  _28
REMARK   13  A    between atoms: _28  and  _29
REMARK   14  A    between atoms: _29  and  _30
REMARK   15  A    between atoms: _30  and  _31
REMARK   16  A    between atoms: _40  and  _42
REMARK   17  A    between atoms: _42  and  _43
REMARK   18  A    between atoms: _45  and  _47
REMARK   19  A    between atoms: _47  and  _48
REMARK   20  A    between atoms: _47  and  _50
REMARK   21  A    between atoms: _50  and  _51
REMARK   22  A    between atoms: _53  and  _55
REMARK   23  A    between atoms: _55  and  _56
REMARK   24  A    between atoms: _59  and  _61
REMARK   25  A    between atoms: _61  and  _62
REMARK   26  A    between atoms: _61  and  _64
REMARK   27  A    between atoms: _64  and  _65
REMARK   28  A    between atoms: _65  and  _66
REMARK   29  A    between atoms: _66  and  _67
REMARK   30  A    between atoms: _67  and  _68
REMARK   31  A    between atoms: _72  and  _74
REMARK   32  A    between atoms: _74  and  _75
REMARK   33  A    between atoms: _74  and  _77
REMARK   34  A    between atoms: _77  and  _78
REMARK   35  A    between atoms: _81  and  _83
REMARK   36  A    between atoms: _83  and  _84
REMARK   37  A    between atoms: _83  and  _86
REMARK   38  A    between atoms: _86  and  _87
REMARK   39  A    between atoms: _87  and  _88
REMARK   40  A    between atoms: _93  and  _95
REMARK   41  A    between atoms: _95  and  _96
REMARK   42  A    between atoms: _95  and  _98
REMARK   43  A    between atoms: _98  and  _99
REMARK   44  A    between atoms: _102  and  _104
REMARK   45  A    between atoms: _104  and  _105
REMARK   46  A    between atoms: _104  and  _107
REMARK   47  A    between atoms: _107  and  _108
REMARK   48  A    between atoms: _111  and  _113
REMARK   49  A    between atoms: _113  and  _114
REMARK   50  A    between atoms: _116  and  _118
REMARK   51  A    between atoms: _118  and  _119
REMARK   52  A    between atoms: _118  and  _121
REMARK   53  A    between atoms: _123  and  _125
REMARK   54  A    between atoms: _125  and  _126
REMARK   55  A    between atoms: _128  and  _130
REMARK   56  A    between atoms: _130  and  _131
REMARK   57  A    between atoms: _130  and  _133
REMARK   58  A    between atoms: _133  and  _134
REMARK   59  A    between atoms: _134  and  _135
REMARK   60  A    between atoms: _135  and  _136
REMARK   61  A    between atoms: _145  and  _147
REMARK   62  A    between atoms: _147  and  _148
REMARK   63  A    between atoms: _150  and  _152
REMARK   64  A    between atoms: _152  and  _153
REMARK   65  A    between atoms: _155  and  _157
REMARK   66  A    between atoms: _157  and  _158
REMARK   67  A    between atoms: _157  and  _160
REMARK   68  A    between atoms: _160  and  _161
REMARK   69  A    between atoms: _171  and  _173
REMARK   70  A    between atoms: _173  and  _174
REMARK   71  A    between atoms: _173  and  _176
REMARK   72  A    between atoms: _176  and  _177
REMARK   73  A    between atoms: _179  and  _181
REMARK   74  A    between atoms: _181  and  _182
REMARK   75  A    between atoms: _181  and  _184
REMARK   76  A    between atoms: _184  and  _185
REMARK   77  A    between atoms: _190  and  _191
REMARK   78  A    between atoms: _193  and  _195
REMARK   79  A    between atoms: _195  and  _196
REMARK   80  A    between atoms: _195  and  _198
REMARK   81  A    between atoms: _198  and  _199
REMARK   82  A    between atoms: _204  and  _205
REMARK   83  A    between atoms: _207  and  _209
REMARK   84  A    between atoms: _209  and  _210
REMARK   85  A    between atoms: _209  and  _212
REMARK   86  A    between atoms: _212  and  _213
REMARK   87  A    between atoms: _218  and  _219
REMARK   88  A    between atoms: _221  and  _223
REMARK   89  A    between atoms: _223  and  _224
REMARK   90  A    between atoms: _223  and  _226
REMARK   91  A    between atoms: _226  and  _227
REMARK   92  A    between atoms: _230  and  _232
REMARK   93  A    between atoms: _232  and  _233
REMARK   94  A    between atoms: _232  and  _235
REMARK   95  A    between atoms: _235  and  _236
REMARK   96  A    between atoms: _236  and  _237
REMARK   97  A    between atoms: _237  and  _238
REMARK   98  A    between atoms: _238  and  _239
REMARK   99  A    between atoms: _243  and  _245
REMARK  100  A    between atoms: _245  and  _246
REMARK  101  A    between atoms: _248  and  _250
REMARK  102  A    between atoms: _250  and  _251
REMARK  103  A    between atoms: _254  and  _255
REMARK  104  A    between atoms: _260  and  _262
REMARK  105  A    between atoms: _262  and  _263
REMARK  106  A    between atoms: _265  and  _267
REMARK  107  A    between atoms: _267  and  _268
REMARK  108  A    between atoms: _267  and  _270
REMARK  109  A    between atoms: _270  and  _271
REMARK  110  A    between atoms: _276  and  _278
REMARK  111  A    between atoms: _278  and  _279
REMARK  112  A    between atoms: _278  and  _281
REMARK  113  A    between atoms: _281  and  _282
REMARK  114  A    between atoms: _282  and  _283
REMARK  115  A    between atoms: _286  and  _288
REMARK  116  A    between atoms: _288  and  _289
REMARK  117  A    between atoms: _288  and  _291
REMARK  118  A    between atoms: _291  and  _292
REMARK  119  A    between atoms: _292  and  _293
REMARK  120  A    between atoms: _297  and  _298
REMARK  121  A    between atoms: _303  and  _305
REMARK  122  A    between atoms: _305  and  _306
REMARK  123  A    between atoms: _305  and  _308
REMARK  124  A    between atoms: _311  and  _313
REMARK  125  A    between atoms: _313  and  _314
REMARK  126  A    between atoms: _313  and  _316
REMARK  127  A    between atoms: _316  and  _317
REMARK  128  A    between atoms: _317  and  _318
REMARK  129  A    between atoms: _320  and  _322
REMARK  130  A    between atoms: _322  and  _323
REMARK  131  A    between atoms: _322  and  _325
REMARK  132  A    between atoms: _325  and  _326
REMARK  133  A    between atoms: _328  and  _330
REMARK  134  A    between atoms: _330  and  _331
REMARK  135  A    between atoms: _333  and  _335
REMARK  136  A    between atoms: _335  and  _336
REMARK  137  A    between atoms: _335  and  _338
REMARK  138  A    between atoms: _338  and  _339
REMARK  139  A    between atoms: _339  and  _340
REMARK  140  A    between atoms: _340  and  _341
REMARK  141  A    between atoms: _341  and  _342
REMARK  142  A    between atoms: _346  and  _348
REMARK  143  A    between atoms: _348  and  _349
REMARK  144  A    between atoms: _348  and  _351
REMARK  145  A    between atoms: _351  and  _352
REMARK  146  A    between atoms: _355  and  _357
REMARK  147  A    between atoms: _357  and  _358
REMARK  148  A    between atoms: _357  and  _360
REMARK  149  A    between atoms: _363  and  _365
REMARK  150  A    between atoms: _365  and  _366
REMARK  151  A    between atoms: _365  and  _368
REMARK  152  A    between atoms: _368  and  _369
REMARK  153  A    between atoms: _375  and  _377
REMARK  154  A    between atoms: _377  and  _378
REMARK  155  A    between atoms: _377  and  _380
REMARK  156  A    between atoms: _380  and  _381
REMARK  157  A    between atoms: _386  and  _387
REMARK  158  A    between atoms: _389  and  _391
REMARK  159  A    between atoms: _391  and  _392
REMARK  160  A    between atoms: _391  and  _394
REMARK  161  A    between atoms: _394  and  _395
REMARK  162  A    between atoms: _398  and  _400
REMARK  163  A    between atoms: _400  and  _401
REMARK  164  A    between atoms: _400  and  _403
REMARK  165  A    between atoms: _403  and  _404
REMARK  166  A    between atoms: _407  and  _409
REMARK  167  A    between atoms: _409  and  _410
REMARK  168  A    between atoms: _409  and  _412
REMARK  169  A    between atoms: _414  and  _416
REMARK  170  A    between atoms: _416  and  _417
REMARK  171  A    between atoms: _416  and  _419
REMARK  172  A    between atoms: _419  and  _420
REMARK  173  A    between atoms: _423  and  _425
REMARK  174  A    between atoms: _425  and  _426
REMARK  175  A    between atoms: _425  and  _428
REMARK  176  A    between atoms: _428  and  _429
REMARK  177  A    between atoms: _432  and  _434
REMARK  178  A    between atoms: _434  and  _435
REMARK  179  A    between atoms: _437  and  _439
REMARK  180  A    between atoms: _439  and  _440
REMARK  181  A    between atoms: _439  and  _442
REMARK  182  A    between atoms: _442  and  _443
REMARK  183  A    between atoms: _443  and  _444
REMARK  184  A    between atoms: _447  and  _449
REMARK  185  A    between atoms: _449  and  _450
REMARK  186  A    between atoms: _449  and  _452
REMARK  187  A    between atoms: _452  and  _453
REMARK  188  A    between atoms: _455  and  _457
REMARK  189  A    between atoms: _457  and  _458
REMARK  190  A    between atoms: _457  and  _460
REMARK  191  A    between atoms: _460  and  _461
REMARK  192  A    between atoms: _461  and  _462
REMARK  193  A    between atoms: _462  and  _463
REMARK  194  A    between atoms: _472  and  _474
REMARK  195  A    between atoms: _474  and  _475
REMARK  196  A    between atoms: _474  and  _477
REMARK  197  A    between atoms: _477  and  _478
REMARK  198  A    between atoms: _481  and  _483
REMARK  199  A    between atoms: _483  and  _484
REMARK  200  A    between atoms: _483  and  _486
REMARK  201  A    between atoms: _486  and  _487
REMARK  202  A    between atoms: _490  and  _492
REMARK  203  A    between atoms: _492  and  _493
REMARK  204  A    between atoms: _492  and  _495
REMARK  205  A    between atoms: _495  and  _496
REMARK  206  A    between atoms: _496  and  _497
REMARK  207  A    between atoms: _497  and  _498
REMARK  208  A    between atoms: _507  and  _509
REMARK  209  A    between atoms: _509  and  _510
REMARK  210  A    between atoms: _509  and  _512
REMARK  211  A    between atoms: _515  and  _517
REMARK  212  A    between atoms: _517  and  _518
REMARK  213  A    between atoms: _517  and  _520
REMARK  214  A    between atoms: _520  and  _521
REMARK  215  A    between atoms: _524  and  _526
REMARK  216  A    between atoms: _526  and  _527
REMARK  217  A    between atoms: _526  and  _529
REMARK  218  A    between atoms: _529  and  _530
REMARK  219  A    between atoms: _530  and  _531
REMARK  220  A    between atoms: _531  and  _532
REMARK  221  A    between atoms: _532  and  _533
REMARK  222  A    between atoms: _537  and  _539
REMARK  223  A    between atoms: _539  and  _540
REMARK  224  A    between atoms: _539  and  _542
REMARK  225  A    between atoms: _542  and  _543
REMARK  226  A    between atoms: _543  and  _544
REMARK  227  A    between atoms: _546  and  _548
REMARK  228  A    between atoms: _548  and  _549
REMARK  229  A    between atoms: _548  and  _551
REMARK  230  A    between atoms: _554  and  _556
REMARK  231  A    between atoms: _556  and  _557
REMARK  232  A    between atoms: _556  and  _559
REMARK  233  A    between atoms: _559  and  _560
REMARK  234  A    between atoms: _570  and  _572
REMARK  235  A    between atoms: _572  and  _573
REMARK  236  A    between atoms: _572  and  _575
REMARK  237  A    between atoms: _575  and  _576
REMARK  238  A    between atoms: _576  and  _577
REMARK  239  A    between atoms: _577  and  _578
REMARK  240  A    between atoms: _578  and  _579
REMARK  241  A    between atoms: _583  and  _585
REMARK  242  A    between atoms: _585  and  _586
REMARK  243  A    between atoms: _585  and  _588
REMARK  244  A    between atoms: _588  and  _589
REMARK  245  A    between atoms: _592  and  _594
REMARK  246  A    between atoms: _594  and  _595
REMARK  247  A    between atoms: _594  and  _597
REMARK  248  A    between atoms: _597  and  _598
REMARK  249  A    between atoms: _603  and  _604
REMARK                            x       y       z     vdW  Elec       q    Type
REMARK                         _______ _______ _______ _____ _____    ______ ____
ROOT
ATOM      1  C   GLY A   7      12.656  -7.976  45.501  0.00  0.00    +0.243 C 
ATOM      2  N   GLY A   8      11.509  -8.231  46.143  0.00  0.00    -0.295 N 
ATOM      3  H   GLY A   8      10.890  -7.449  46.439  0.00  0.00    +0.150 HD
ATOM      4  O   GLY A   7      13.402  -8.881  45.065  0.00  0.00    -0.273 OA
ENDROOT
BRANCH   1   5
ATOM      5  CA  GLY A   7      13.024  -6.504  45.298  0.00  0.00    +0.176 C 
BRANCH   5   8
ATOM      6  C   ARG A   6      12.844  -4.708  47.003  0.00  0.00    +0.241 C 
ATOM      7  O   ARG A   6      14.048  -4.787  47.344  0.00  0.00    -0.273 OA
ATOM      8  N   GLY A   7      12.277  -5.517  46.102  0.00  0.00    -0.295 N 
ATOM      9  H   GLY A   7      11.249  -5.447  45.959  0.00  0.00    +0.150 HD
BRANCH   6  10
ATOM     10  CA  ARG A   6      11.939  -3.636  47.635  0.00  0.00    +0.149 C 
BRANCH  10  12
ATOM     11  C   GLY A   5      11.014  -2.631  45.614  0.00  0.00    +0.243 C 
ATOM     12  N   ARG A   6      10.824  -3.263  46.779  0.00  0.00    -0.297 N 
ATOM     13  H   ARG A   6       9.855  -3.493  47.079  0.00  0.00    +0.150 HD
ATOM     14  O   GLY A   5      12.136  -2.345  45.164  0.00  0.00    -0.273 OA
BRANCH  11  15
ATOM     15  CA  GLY A   5       9.754  -2.317  44.819  0.00  0.00    +0.176 C 
BRANCH  15  18
ATOM     16  C   CYS A   4      10.205  -3.967  43.064  0.00  0.00    +0.242 C 
ATOM     17  O   CYS A   4      10.347  -4.852  43.892  0.00  0.00    -0.273 OA
ATOM     18  N   GLY A   5       9.837  -2.724  43.416  0.00  0.00    -0.295 N 
ATOM     19  H   GLY A   5       9.605  -2.034  42.673  0.00  0.00    +0.150 HD
BRANCH  16  20
ATOM     20  CA  CYS A   4      10.428  -4.282  41.576  0.00  0.00    +0.160 C 
BRANCH  20  23
ATOM     21  C   GLY A   3       8.487  -3.325  40.480  0.00  0.00    +0.243 C 
ATOM     22  O   GLY A   3       7.727  -4.051  41.129  0.00  0.00    -0.273 OA
ATOM     23  N   CYS A   4       9.811  -3.318  40.668  0.00  0.00    -0.296 N 
ATOM     24  H   CYS A   4      10.403  -2.625  40.167  0.00  0.00    +0.150 HD
BRANCH  21  25
ATOM     25  CA  GLY A   3       7.928  -2.409  39.420  0.00  0.00    +0.176 C 
BRANCH  25  27
ATOM     26  C   LEU A   2       8.242  -3.885  37.487  0.00  0.00    +0.241 C 
ATOM     27  N   GLY A   3       8.488  -2.741  38.107  0.00  0.00    -0.295 N 
ATOM     28  H   GLY A   3       9.107  -2.047  37.641  0.00  0.00    +0.150 HD
ATOM     29  O   LEU A   2       7.342  -4.682  37.865  0.00  0.00    -0.273 OA
BRANCH  26  30
ATOM     30  CA  LEU A   2       9.114  -4.165  36.253  0.00  0.00    +0.149 C 
BRANCH  30  33
ATOM     31  C   ASP A   1      10.905  -5.717  37.013  0.00  0.00    +0.239 C 
ATOM     32  O   ASP A   1      11.537  -4.881  37.632  0.00  0.00    -0.274 OA
ATOM     33  N   LEU A   2       9.760  -5.500  36.377  0.00  0.00    -0.297 N 
ATOM     34  H   LEU A   2       9.285  -6.314  35.938  0.00  0.00    +0.150 HD
BRANCH  31  35
ATOM     35  CA  ASP A   1      11.434  -7.156  36.943  0.00  0.00    +0.156 C 
BRANCH  35  36
ATOM     36  N   ASP A   1      12.452  -7.235  35.889  0.00  0.00    -0.238 NA
ATOM     37  H   ASP A   1      13.304  -6.644  35.967  0.00  0.00    +0.142 HD
ENDBRANCH  35  36
BRANCH  35  38
ATOM     38  CB  ASP A   1      12.051  -7.578  38.271  0.00  0.00    +0.140 C 
BRANCH  38  39
ATOM     39  CG  ASP A   1      11.025  -7.567  39.446  0.00  0.00    +0.367 C 
ATOM     40  OD2 ASP A   1      11.464  -7.643  40.599  0.00  0.00    -0.246 OA
ATOM     41  OD1 ASP A   1       9.804  -7.487  39.169  0.00  0.00    -0.246 OA
ENDBRANCH  38  39
ENDBRANCH  35  38
ENDBRANCH  31  35
ENDBRANCH  30  33
BRANCH  30  42
ATOM     42  CB  LEU A   2       8.315  -4.063  34.940  0.00  0.00    +0.029 C 
BRANCH  42  43
ATOM     43  CG  LEU A   2       8.939  -4.260  33.509  0.00  0.00    +0.002 C 
ATOM     44  CD2 LEU A   2      10.062  -3.264  33.367  0.00  0.00    +0.000 C 
ATOM     45  CD1 LEU A   2       7.896  -4.116  32.350  0.00  0.00    +0.000 C 
ENDBRANCH  42  43
ENDBRANCH  30  42
ENDBRANCH  26  30
ENDBRANCH  25  27
ENDBRANCH  21  25
ENDBRANCH  20  23
BRANCH  20  46
ATOM     46  CB  CYS A   4      11.911  -4.482  41.254  0.00  0.00    +0.098 C 
ATOM     47  SG  CYS A   4      12.943  -3.034  41.600  0.00  0.00    -0.080 S 
ENDBRANCH  20  46
ENDBRANCH  16  20
ENDBRANCH  15  18
ENDBRANCH  11  15
ENDBRANCH  10  12
BRANCH  10  48
ATOM     48  CB  ARG A   6      11.424  -4.053  49.015  0.00  0.00    +0.033 C 
BRANCH  48  49
ATOM     49  CG  ARG A   6      10.671  -2.913  49.748  0.00  0.00    +0.045 C 
BRANCH  49  50
ATOM     50  CD  ARG A   6       9.851  -3.371  50.959  0.00  0.00    +0.174 C 
BRANCH  50  51
ATOM     51  NE  ARG A   6      10.582  -4.289  51.833  0.00  0.00    -0.265 N 
ATOM     52  CZ  ARG A   6      11.206  -3.947  52.959  0.00  0.00    +0.342 C 
ATOM     53  NH2 ARG A   6      11.833  -4.883  53.674  0.00  0.00    -0.292 N 
ATOM     54 HH21 ARG A   6      12.322  -4.624  54.554  0.00  0.00    +0.255 HD
ATOM     55 HH22 ARG A   6      11.832  -5.872  53.351  0.00  0.00    +0.255 HD
ATOM     56  NH1 ARG A   6      11.200  -2.679  53.375  0.00  0.00    -0.292 N 
ATOM     57 HH11 ARG A   6      11.689  -2.418  54.255  0.00  0.00    +0.255 HD
ATOM     58 HH12 ARG A   6      10.706  -1.952  52.819  0.00  0.00    +0.255 HD
ATOM     59  HE  ARG A   6      10.617  -5.290  51.552  0.00  0.00    +0.259 HD
ENDBRANCH  50  51
ENDBRANCH  49  50
ENDBRANCH  48  49
ENDBRANCH  10  48
ENDBRANCH   6  10
ENDBRANCH   5   8
ENDBRANCH   1   5
BRANCH   2  60
ATOM     60  CA  GLY A   8      11.125  -9.640  46.430  0.00  0.00    +0.176 C 
BRANCH  60  61
ATOM     61  C   GLY A   8      11.158 -10.582  45.236  0.00  0.00    +0.243 C 
ATOM     62  O   GLY A   8      11.575 -11.769  45.378  0.00  0.00    -0.273 OA
ATOM     63  N   TRP A   9      10.704 -10.130  44.061  0.00  0.00    -0.297 N 
ATOM     64  H   TRP A   9      10.364  -9.151  43.975  0.00  0.00    +0.150 HD
BRANCH  63  65
ATOM     65  CA  TRP A   9      10.688 -11.005  42.915  0.00  0.00    +0.153 C 
BRANCH  65  66
ATOM     66  C   TRP A   9      12.122 -11.186  42.375  0.00  0.00    +0.241 C 
ATOM     67  N   SER A  10      12.892 -10.107  42.419  0.00  0.00    -0.295 N 
ATOM     68  H   SER A  10      12.510  -9.233  42.833  0.00  0.00    +0.150 HD
ATOM     69  O   TRP A   9      12.509 -12.287  41.979  0.00  0.00    -0.273 OA
BRANCH  67  70
ATOM     70  CA  SER A  10      14.257 -10.107  41.905  0.00  0.00    +0.178 C 
BRANCH  70  71
ATOM     71  C   SER A  10      15.193 -10.994  42.702  0.00  0.00    +0.243 C 
ATOM     72  N   TYR A  11      15.162 -10.877  44.012  0.00  0.00    -0.297 N 
ATOM     73  H   TYR A  11      14.498 -10.197  44.434  0.00  0.00    +0.150 HD
ATOM     74  O   SER A  10      15.916 -11.786  42.107  0.00  0.00    -0.273 OA
BRANCH  72  75
ATOM     75  CA  TYR A  11      16.019 -11.660  44.903  0.00  0.00    +0.153 C 
BRANCH  75  76
ATOM     76  C   TYR A  11      15.617 -13.136  44.819  0.00  0.00    +0.241 C 
ATOM     77  O   TYR A  11      16.485 -14.027  44.791  0.00  0.00    -0.273 OA
ATOM     78  N   TYR A  12      14.314 -13.400  44.746  0.00  0.00    -0.298 N 
ATOM     79  H   TYR A  12      13.614 -12.640  44.863  0.00  0.00    +0.150 HD
BRANCH  78  80
ATOM     80  CA  TYR A  12      13.879 -14.783  44.498  0.00  0.00    +0.141 C 
BRANCH  80  81
ATOM     81  C   TYR A  12      14.469 -15.373  43.222  0.00  0.00    +0.227 C 
ATOM     82  O   TYR A  12      15.125 -16.419  43.281  0.00  0.00    -0.286 OA
ENDBRANCH  80  81
BRANCH  80  83
ATOM     83  CB  TYR A  12      12.350 -14.932  44.495  0.00  0.00    +0.054 C 
BRANCH  83  84
ATOM     84  CG  TYR A  12      11.922 -16.338  44.160  0.00  0.00    -0.020 A 
ATOM     85  CD2 TYR A  12      12.237 -17.411  45.021  0.00  0.00    -0.001 A 
ATOM     86  CE2 TYR A  12      11.832 -18.716  44.704  0.00  0.00    +0.036 A 
ATOM     87  CZ  TYR A  12      11.120 -18.934  43.521  0.00  0.00    +0.134 A 
ATOM     88  CE1 TYR A  12      10.808 -17.894  42.660  0.00  0.00    +0.036 A 
ATOM     89  CD1 TYR A  12      11.205 -16.601  43.000  0.00  0.00    -0.001 A 
BRANCH  87  90
ATOM     90  OH  TYR A  12      10.717 -20.193  43.145  0.00  0.00    -0.506 OA
ATOM     91  HH  TYR A  12      10.995 -20.847  43.835  0.00  0.00    +0.292 HD
ENDBRANCH  87  90
ENDBRANCH  83  84
ENDBRANCH  80  83
ENDBRANCH  78  80
ENDBRANCH  75  76
BRANCH  75  92
ATOM     92  CB  TYR A  11      15.959 -11.134  46.303  0.00  0.00    +0.055 C 
BRANCH  92  93
ATOM     93  CG  TYR A  11      16.704  -9.827  46.494  0.00  0.00    -0.020 A 
ATOM     94  CD2 TYR A  11      16.053  -8.709  46.998  0.00  0.00    -0.001 A 
ATOM     95  CE2 TYR A  11      16.733  -7.494  47.192  0.00  0.00    +0.036 A 
ATOM     96  CZ  TYR A  11      18.095  -7.416  46.850  0.00  0.00    +0.134 A 
ATOM     97  CE1 TYR A  11      18.771  -8.529  46.363  0.00  0.00    +0.036 A 
ATOM     98  CD1 TYR A  11      18.069  -9.728  46.185  0.00  0.00    -0.001 A 
BRANCH  96  99
ATOM     99  OH  TYR A  11      18.771  -6.221  47.021  0.00  0.00    -0.506 OA
ATOM    100  HH  TYR A  11      18.147  -5.538  47.372  0.00  0.00    +0.292 HD
ENDBRANCH  96  99
ENDBRANCH  92  93
ENDBRANCH  75  92
ENDBRANCH  72  75
ENDBRANCH  70  71
BRANCH  70 101
ATOM    101  CB  SER A  10      14.813  -8.676  41.803  0.00  0.00    +0.166 C 
BRANCH 101 102
ATOM    102  OG  SER A  10      14.191  -8.047  40.714  0.00  0.00    -0.380 OA
ATOM    103  H   SER A  10      13.212  -8.025  40.862  0.00  0.00    +0.211 HD
ENDBRANCH 101 102
ENDBRANCH  70 101
ENDBRANCH  67  70
ENDBRANCH  65  66
BRANCH  65 104
ATOM    104  CB  TRP A   9       9.766 -10.484  41.819  0.00  0.00    +0.057 C 
BRANCH 104 105
ATOM    105  CG  TRP A   9       8.283 -10.704  42.061  0.00  0.00    -0.002 A 
ATOM    106  CD1 TRP A   9       7.669 -11.017  43.255  0.00  0.00    +0.068 A 
ATOM    107  NE1 TRP A   9       6.311 -11.123  43.077  0.00  0.00    -0.352 N 
ATOM    108  HE1 TRP A   9       5.621 -11.361  43.818  0.00  0.00    +0.166 HD
ATOM    109  CE2 TRP A   9       6.015 -10.865  41.767  0.00  0.00    +0.056 A 
ATOM    110  CZ2 TRP A   9       4.798 -10.873  41.100  0.00  0.00    +0.017 A 
ATOM    111  CH2 TRP A   9       4.803 -10.600  39.752  0.00  0.00    +0.001 A 
ATOM    112  CZ3 TRP A   9       6.005 -10.324  39.050  0.00  0.00    +0.000 A 
ATOM    113  CE3 TRP A   9       7.228 -10.321  39.713  0.00  0.00    +0.001 A 
ATOM    114  CD2 TRP A   9       7.252 -10.611  41.092  0.00  0.00    +0.013 A 
ENDBRANCH 104 105
ENDBRANCH  65 104
ENDBRANCH  63  65
ENDBRANCH  60  61
ENDBRANCH   2  60
TORSDOF 43
REMARK  Name = ../refined-set-2016/3p8z/3p8z_pocket.pdb
REMARK  249 active torsions:
REMARK  status: ('A' for Active; 'I' for Inactive)
REMARK    1  A    between atoms: _1  and  _3
REMARK    2  A    between atoms: _3  and  _4
REMARK    3  A    between atoms: _7  and  _9
REMARK    4  A    between atoms: _9  and  _10
REMARK    5  A    between atoms: _9  and  _12
REMARK    6  A    between atoms: _15  and  _17
REMARK    7  A    between atoms: _17  and  _18
REMARK    8  A    between atoms: _17  and  _20
REMARK    9  A    between atoms: _20  and  _21
REMARK   10  A    between atoms: _23  and  _25
REMARK   11  A    between atoms: _25  and  _26
REMARK   12  A    between atoms: _25  and  _28
REMARK   13  A    between atoms: _28  and  _29
REMARK   14  A    between atoms: _29  and  _30
REMARK   15  A    between atoms: _30  and  _31
REMARK   16  A    between atoms: _40  and  _42
REMARK   17  A    between atoms: _42  and  _43
REMARK   18  A    between atoms: _45  and  _47
REMARK   19  A    between atoms: _47  and  _48
REMARK   20  A    between atoms: _47  and  _50
REMARK   21  A    between atoms: _50  and  _51
REMARK   22  A    between atoms: _53  and  _55
REMARK   23  A    between atoms: _55  and  _56
REMARK   24  A    between atoms: _59  and  _61
REMARK   25  A    between atoms: _61  and  _62
REMARK   26  A    between atoms: _61  and  _64
REMARK   27  A    between atoms: _64  and  _65
REMARK   28  A    between atoms: _65  and  _66
REMARK   29  A    between atoms: _66  and  _67
REMARK   30  A    between atoms: _67  and  _68
REMARK   31  A    between atoms: _72  and  _74
REMARK   32  A    between atoms: _74  and  _75
REMARK   33  A    between atoms: _74  and  _77
REMARK   34  A    between atoms: _77  and  _78
REMARK   35  A    between atoms: _81  and  _83
REMARK   36  A    between atoms: _83  and  _84
REMARK   37  A    between atoms: _83  and  _86
REMARK   38  A    between atoms: _86  and  _87
REMARK   39  A    between atoms: _87  and  _88
REMARK   40  A    between atoms: _93  and  _95
REMARK   41  A    between atoms: _95  and  _96
REMARK   42  A    between atoms: _95  and  _98
REMARK   43  A    between atoms: _98  and  _99
REMARK   44  A    between atoms: _102  and  _104
REMARK   45  A    between atoms: _104  and  _105
REMARK   46  A    between atoms: _104  and  _107
REMARK   47  A    between atoms: _107  and  _108
REMARK   48  A    between atoms: _111  and  _113
REMARK   49  A    between atoms: _113  and  _114
REMARK   50  A    between atoms: _116  and  _118
REMARK   51  A    between atoms: _118  and  _119
REMARK   52  A    between atoms: _118  and  _121
REMARK   53  A    between atoms: _123  and  _125
REMARK   54  A    between atoms: _125  and  _126
REMARK   55  A    between atoms: _128  and  _130
REMARK   56  A    between atoms: _130  and  _131
REMARK   57  A    between atoms: _130  and  _133
REMARK   58  A    between atoms: _133  and  _134
REMARK   59  A    between atoms: _134  and  _135
REMARK   60  A    between atoms: _135  and  _136
REMARK   61  A    between atoms: _145  and  _147
REMARK   62  A    between atoms: _147  and  _148
REMARK   63  A    between atoms: _150  and  _152
REMARK   64  A    between atoms: _152  and  _153
REMARK   65  A    between atoms: _155  and  _157
REMARK   66  A    between atoms: _157  and  _158
REMARK   67  A    between atoms: _157  and  _160
REMARK   68  A    between atoms: _160  and  _161
REMARK   69  A    between atoms: _171  and  _173
REMARK   70  A    between atoms: _173  and  _174
REMARK   71  A    between atoms: _173  and  _176
REMARK   72  A    between atoms: _176  and  _177
REMARK   73  A    between atoms: _179  and  _181
REMARK   74  A    between atoms: _181  and  _182
REMARK   75  A    between atoms: _181  and  _184
REMARK   76  A    between atoms: _184  and  _185
REMARK   77  A    between atoms: _190  and  _191
REMARK   78  A    between atoms: _193  and  _195
REMARK   79  A    between atoms: _195  and  _196
REMARK   80  A    between atoms: _195  and  _198
REMARK   81  A    between atoms: _198  and  _199
REMARK   82  A    between atoms: _204  and  _205
REMARK   83  A    between atoms: _207  and  _209
REMARK   84  A    between atoms: _209  and  _210
REMARK   85  A    between atoms: _209  and  _212
REMARK   86  A    between atoms: _212  and  _213
REMARK   87  A    between atoms: _218  and  _219
REMARK   88  A    between atoms: _221  and  _223
REMARK   89  A    between atoms: _223  and  _224
REMARK   90  A    between atoms: _223  and  _226
REMARK   91  A    between atoms: _226  and  _227
REMARK   92  A    between atoms: _230  and  _232
REMARK   93  A    between atoms: _232  and  _233
REMARK   94  A    between atoms: _232  and  _235
REMARK   95  A    between atoms: _235  and  _236
REMARK   96  A    between atoms: _236  and  _237
REMARK   97  A    between atoms: _237  and  _238
REMARK   98  A    between atoms: _238  and  _239
REMARK   99  A    between atoms: _243  and  _245
REMARK  100  A    between atoms: _245  and  _246
REMARK  101  A    between atoms: _248  and  _250
REMARK  102  A    between atoms: _250  and  _251
REMARK  103  A    between atoms: _254  and  _255
REMARK  104  A    between atoms: _260  and  _262
REMARK  105  A    between atoms: _262  and  _263
REMARK  106  A    between atoms: _265  and  _267
REMARK  107  A    between atoms: _267  and  _268
REMARK  108  A    between atoms: _267  and  _270
REMARK  109  A    between atoms: _270  and  _271
REMARK  110  A    between atoms: _276  and  _278
REMARK  111  A    between atoms: _278  and  _279
REMARK  112  A    between atoms: _278  and  _281
REMARK  113  A    between atoms: _281  and  _282
REMARK  114  A    between atoms: _282  and  _283
REMARK  115  A    between atoms: _286  and  _288
REMARK  116  A    between atoms: _288  and  _289
REMARK  117  A    between atoms: _288  and  _291
REMARK  118  A    between atoms: _291  and  _292
REMARK  119  A    between atoms: _292  and  _293
REMARK  120  A    between atoms: _297  and  _298
REMARK  121  A    between atoms: _303  and  _305
REMARK  122  A    between atoms: _305  and  _306
REMARK  123  A    between atoms: _305  and  _308
REMARK  124  A    between atoms: _311  and  _313
REMARK  125  A    between atoms: _313  and  _314
REMARK  126  A    between atoms: _313  and  _316
REMARK  127  A    between atoms: _316  and  _317
REMARK  128  A    between atoms: _317  and  _318
REMARK  129  A    between atoms: _320  and  _322
REMARK  130  A    between atoms: _322  and  _323
REMARK  131  A    between atoms: _322  and  _325
REMARK  132  A    between atoms: _325  and  _326
REMARK  133  A    between atoms: _328  and  _330
REMARK  134  A    between atoms: _330  and  _331
REMARK  135  A    between atoms: _333  and  _335
REMARK  136  A    between atoms: _335  and  _336
REMARK  137  A    between atoms: _335  and  _338
REMARK  138  A    between atoms: _338  and  _339
REMARK  139  A    between atoms: _339  and  _340
REMARK  140  A    between atoms: _340  and  _341
REMARK  141  A    between atoms: _341  and  _342
REMARK  142  A    between atoms: _346  and  _348
REMARK  143  A    between atoms: _348  and  _349
REMARK  144  A    between atoms: _348  and  _351
REMARK  145  A    between atoms: _351  and  _352
REMARK  146  A    between atoms: _355  and  _357
REMARK  147  A    between atoms: _357  and  _358
REMARK  148  A    between atoms: _357  and  _360
REMARK  149  A    between atoms: _363  and  _365
REMARK  150  A    between atoms: _365  and  _366
REMARK  151  A    between atoms: _365  and  _368
REMARK  152  A    between atoms: _368  and  _369
REMARK  153  A    between atoms: _375  and  _377
REMARK  154  A    between atoms: _377  and  _378
REMARK  155  A    between atoms: _377  and  _380
REMARK  156  A    between atoms: _380  and  _381
REMARK  157  A    between atoms: _386  and  _387
REMARK  158  A    between atoms: _389  and  _391
REMARK  159  A    between atoms: _391  and  _392
REMARK  160  A    between atoms: _391  and  _394
REMARK  161  A    between atoms: _394  and  _395
REMARK  162  A    between atoms: _398  and  _400
REMARK  163  A    between atoms: _400  and  _401
REMARK  164  A    between atoms: _400  and  _403
REMARK  165  A    between atoms: _403  and  _404
REMARK  166  A    between atoms: _407  and  _409
REMARK  167  A    between atoms: _409  and  _410
REMARK  168  A    between atoms: _409  and  _412
REMARK  169  A    between atoms: _414  and  _416
REMARK  170  A    between atoms: _416  and  _417
REMARK  171  A    between atoms: _416  and  _419
REMARK  172  A    between atoms: _419  and  _420
REMARK  173  A    between atoms: _423  and  _425
REMARK  174  A    between atoms: _425  and  _426
REMARK  175  A    between atoms: _425  and  _428
REMARK  176  A    between atoms: _428  and  _429
REMARK  177  A    between atoms: _432  and  _434
REMARK  178  A    between atoms: _434  and  _435
REMARK  179  A    between atoms: _437  and  _439
REMARK  180  A    between atoms: _439  and  _440
REMARK  181  A    between atoms: _439  and  _442
REMARK  182  A    between atoms: _442  and  _443
REMARK  183  A    between atoms: _443  and  _444
REMARK  184  A    between atoms: _447  and  _449
REMARK  185  A    between atoms: _449  and  _450
REMARK  186  A    between atoms: _449  and  _452
REMARK  187  A    between atoms: _452  and  _453
REMARK  188  A    between atoms: _455  and  _457
REMARK  189  A    between atoms: _457  and  _458
REMARK  190  A    between atoms: _457  and  _460
REMARK  191  A    between atoms: _460  and  _461
REMARK  192  A    between atoms: _461  and  _462
REMARK  193  A    between atoms: _462  and  _463
REMARK  194  A    between atoms: _472  and  _474
REMARK  195  A    between atoms: _474  and  _475
REMARK  196  A    between atoms: _474  and  _477
REMARK  197  A    between atoms: _477  and  _478
REMARK  198  A    between atoms: _481  and  _483
REMARK  199  A    between atoms: _483  and  _484
REMARK  200  A    between atoms: _483  and  _486
REMARK  201  A    between atoms: _486  and  _487
REMARK  202  A    between atoms: _490  and  _492
REMARK  203  A    between atoms: _492  and  _493
REMARK  204  A    between atoms: _492  and  _495
REMARK  205  A    between atoms: _495  and  _496
REMARK  206  A    between atoms: _496  and  _497
REMARK  207  A    between atoms: _497  and  _498
REMARK  208  A    between atoms: _507  and  _509
REMARK  209  A    between atoms: _509  and  _510
REMARK  210  A    between atoms: _509  and  _512
REMARK  211  A    between atoms: _515  and  _517
REMARK  212  A    between atoms: _517  and  _518
REMARK  213  A    between atoms: _517  and  _520
REMARK  214  A    between atoms: _520  and  _521
REMARK  215  A    between atoms: _524  and  _526
REMARK  216  A    between atoms: _526  and  _527
REMARK  217  A    between atoms: _526  and  _529
REMARK  218  A    between atoms: _529  and  _530
REMARK  219  A    between atoms: _530  and  _531
REMARK  220  A    between atoms: _531  and  _532
REMARK  221  A    between atoms: _532  and  _533
REMARK  222  A    between atoms: _537  and  _539
REMARK  223  A    between atoms: _539  and  _540
REMARK  224  A    between atoms: _539  and  _542
REMARK  225  A    between atoms: _542  and  _543
REMARK  226  A    between atoms: _543  and  _544
REMARK  227  A    between atoms: _546  and  _548
REMARK  228  A    between atoms: _548  and  _549
REMARK  229  A    between atoms: _548  and  _551
REMARK  230  A    between atoms: _554  and  _556
REMARK  231  A    between atoms: _556  and  _557
REMARK  232  A    between atoms: _556  and  _559
REMARK  233  A    between atoms: _559  and  _560
REMARK  234  A    between atoms: _570  and  _572
REMARK  235  A    between atoms: _572  and  _573
REMARK  236  A    between atoms: _572  and  _575
REMARK  237  A    between atoms: _575  and  _576
REMARK  238  A    between atoms: _576  and  _577
REMARK  239  A    between atoms: _577  and  _578
REMARK  240  A    between atoms: _578  and  _579
REMARK  241  A    between atoms: _583  and  _585
REMARK  242  A    between atoms: _585  and  _586
REMARK  243  A    between atoms: _585  and  _588
REMARK  244  A    between atoms: _588  and  _589
REMARK  245  A    between atoms: _592  and  _594
REMARK  246  A    between atoms: _594  and  _595
REMARK  247  A    between atoms: _594  and  _597
REMARK  248  A    between atoms: _597  and  _598
REMARK  249  A    between atoms: _603  and  _604
REMARK                            x       y       z     vdW  Elec       q    Type
REMARK                         _______ _______ _______ _____ _____    ______ ____
ROOT
ATOM      1  C   PRO A   6       6.197   8.614  47.528  0.00  0.00    +0.241 C 
ATOM      2  N   GLY A   7       5.670   7.809  48.450  0.00  0.00    -0.295 N 
ATOM      3  H   GLY A   7       6.067   7.833  49.411  0.00  0.00    +0.150 HD
ATOM      4  O   PRO A   6       5.828   8.665  46.346  0.00  0.00    -0.273 OA
ENDROOT
BRANCH   1   8
ATOM      5  C   GLY A   5       9.101   8.283  46.835  0.00  0.00    +0.246 C 
ATOM      6  O   GLY A   5       8.666   7.206  47.298  0.00  0.00    -0.273 OA
ATOM      7  N   PRO A   6       8.529   9.460  47.150  0.00  0.00    -0.272 N 
ATOM      8  CA  PRO A   6       7.339   9.485  48.024  0.00  0.00    +0.152 C 
ATOM      9  CB  PRO A   6       6.899  10.973  48.011  0.00  0.00    +0.031 C 
ATOM     10  CG  PRO A   6       8.100  11.739  47.529  0.00  0.00    +0.024 C 
ATOM     11  CD  PRO A   6       8.995  10.797  46.756  0.00  0.00    +0.094 C 
BRANCH   5  12
ATOM     12  CA  GLY A   5      10.309   8.328  45.902  0.00  0.00    +0.176 C 
BRANCH  12  14
ATOM     13  C   GLY A   4      10.171   6.254  44.655  0.00  0.00    +0.243 C 
ATOM     14  N   GLY A   5      10.782   6.960  45.586  0.00  0.00    -0.295 N 
ATOM     15  H   GLY A   5      11.594   6.558  46.097  0.00  0.00    +0.150 HD
ATOM     16  O   GLY A   4       9.201   6.696  43.985  0.00  0.00    -0.273 OA
BRANCH  13  17
ATOM     17  CA  GLY A   4      10.730   4.838  44.421  0.00  0.00    +0.176 C 
BRANCH  17  19
ATOM     18  C   LYS A   3      10.381   4.879  42.004  0.00  0.00    +0.241 C 
ATOM     19  N   GLY A   4      10.200   4.286  43.181  0.00  0.00    -0.295 N 
ATOM     20  H   GLY A   4       9.661   3.397  43.217  0.00  0.00    +0.150 HD
ATOM     21  O   LYS A   3      11.099   5.897  41.852  0.00  0.00    -0.273 OA
BRANCH  18  22
ATOM     22  CA  LYS A   3       9.665   4.244  40.820  0.00  0.00    +0.149 C 
BRANCH  22  24
ATOM     23  C   THR A   2      10.986   2.249  40.438  0.00  0.00    +0.243 C 
ATOM     24  N   LYS A   3       9.833   2.789  40.801  0.00  0.00    -0.297 N 
ATOM     25  H   LYS A   3       9.040   2.175  41.075  0.00  0.00    +0.150 HD
ATOM     26  O   THR A   2      12.001   2.883  40.278  0.00  0.00    -0.273 OA
BRANCH  23  27
ATOM     27  CA  THR A   2      10.984   0.745  40.263  0.00  0.00    +0.176 C 
BRANCH  27  29
ATOM     28  C   TYR A   1      11.994  -0.767  38.704  0.00  0.00    +0.239 C 
ATOM     29  N   THR A   2      12.100   0.329  39.443  0.00  0.00    -0.295 N 
ATOM     30  H   THR A   2      12.979   0.885  39.433  0.00  0.00    +0.150 HD
ATOM     31  O   TYR A   1      10.974  -1.460  38.667  0.00  0.00    -0.274 OA
BRANCH  28  32
ATOM     32  CA  TYR A   1      13.173  -1.117  37.827  0.00  0.00    +0.149 C 
BRANCH  32  33
ATOM     33  N   TYR A   1      13.436  -2.568  38.023  0.00  0.00    -0.238 NA
ATOM     34  H   TYR A   1      12.647  -3.235  37.903  0.00  0.00    +0.142 HD
ENDBRANCH  32  33
BRANCH  32  35
ATOM     35  CB  TYR A   1      12.773  -0.801  36.391  0.00  0.00    +0.053 C 
BRANCH  35  36
ATOM     36  CG  TYR A   1      13.902  -0.992  35.381  0.00  0.00    -0.020 A 
ATOM     37  CD2 TYR A   1      15.034  -0.180  35.425  0.00  0.00    -0.001 A 
ATOM     38  CE2 TYR A   1      16.093  -0.356  34.519  0.00  0.00    +0.036 A 
ATOM     39  CZ  TYR A   1      16.018  -1.343  33.560  0.00  0.00    +0.134 A 
ATOM     40  CE1 TYR A   1      14.902  -2.176  33.482  0.00  0.00    +0.036 A 
ATOM     41  CD1 TYR A   1      13.836  -1.994  34.401  0.00  0.00    -0.001 A 
BRANCH  39  42
ATOM     42  OH  TYR A   1      17.090  -1.488  32.669  0.00  0.00    -0.506 OA
ATOM     43  HH  TYR A   1      16.898  -2.230  32.042  0.00  0.00    +0.292 HD
ENDBRANCH  39  42
ENDBRANCH  35  36
ENDBRANCH  32  35
ENDBRANCH  28  32
ENDBRANCH  27  29
BRANCH  27  44
ATOM     44  CB  THR A   2      10.977   0.020  41.629  0.00  0.00    +0.137 C 
ATOM     45  CG2 THR A   2      11.930   0.633  42.661  0.00  0.00    +0.034 C 
BRANCH  44  46
ATOM     46  OG1 THR A   2       9.642  -0.059  42.137  0.00  0.00    -0.382 OA
ATOM     47  HG1 THR A   2       9.279   0.855  42.252  0.00  0.00    +0.210 HD
ENDBRANCH  44  46
ENDBRANCH  27  44
ENDBRANCH  23  27
ENDBRANCH  22  24
BRANCH  22  48
ATOM     48  CB  LYS A   3       8.173   4.528  40.818  0.00  0.00    +0.029 C 
BRANCH  48  49
ATOM     49  CG  LYS A   3       7.801   5.789  40.164  0.00  0.00    +0.000 C 
BRANCH  49  50
ATOM     50  CD  LYS A   3       6.314   5.982  40.269  0.00  0.00    -0.024 C 
BRANCH  50  51
ATOM     51  CE  LYS A   3       6.029   7.401  40.652  0.00  0.00    -0.086 C 
BRANCH  51  52
ATOM     52  NZ  LYS A   3       6.900   8.307  39.806  0.00  0.00    +0.380 N 
ATOM     53  HZ1 LYS A   3       6.715   9.299  40.059  0.00  0.00    -0.089 HD
ATOM     54  HZ2 LYS A   3       7.901   8.085  39.980  0.00  0.00    -0.089 HD
ATOM     55  HZ3 LYS A   3       6.680   8.158  38.801  0.00  0.00    -0.089 HD
ENDBRANCH  51  52
ENDBRANCH  50  51
ENDBRANCH  49  50
ENDBRANCH  48  49
ENDBRANCH  22  48
ENDBRANCH  18  22
ENDBRANCH  17  19
ENDBRANCH  13  17
ENDBRANCH  12  14
ENDBRANCH   5  12
ENDBRANCH   1   8
BRANCH   2  56
ATOM     56  CA  GLY A   7       4.561   6.893  48.178  0.00  0.00    +0.176 C 
BRANCH  56  57
ATOM     57  C   GLY A   7       4.979   5.551  47.583  0.00  0.00    +0.243 C 
ATOM     58  N   HIS A   8       6.277   5.337  47.421  0.00  0.00    -0.297 N 
ATOM     59  H   HIS A   8       6.963   6.016  47.808  0.00  0.00    +0.150 HD
ATOM     60  O   GLY A   7       4.135   4.717  47.253  0.00  0.00    -0.273 OA
BRANCH  58  61
ATOM     61  CA  HIS A   8       6.755   4.153  46.702  0.00  0.00    +0.155 C 
BRANCH  61  62
ATOM     62  C   HIS A   8       7.941   3.531  47.438  0.00  0.00    +0.241 C 
ATOM     63  O   HIS A   8       8.834   4.239  47.886  0.00  0.00    -0.273 OA
ATOM     64  N   GLU A   9       7.971   2.208  47.507  0.00  0.00    -0.297 N 
ATOM     65  H   GLU A   9       7.188   1.669  47.084  0.00  0.00    +0.150 HD
BRANCH  64  66
ATOM     66  CA  GLU A   9       9.058   1.475  48.152  0.00  0.00    +0.149 C 
BRANCH  66  67
ATOM     67  C   GLU A   9      10.375   1.589  47.361  0.00  0.00    +0.241 C 
ATOM     68  N   GLU A  10      11.485   1.715  48.088  0.00  0.00    -0.297 N 
ATOM     69  H   GLU A  10      11.392   1.823  49.118  0.00  0.00    +0.150 HD
ATOM     70  O   GLU A   9      10.366   1.569  46.152  0.00  0.00    -0.273 OA
BRANCH  68  71
ATOM     71  CA  GLU A  10      12.834   1.709  47.505  0.00  0.00    +0.149 C 
BRANCH  71  72
ATOM     72  C   GLU A  10      13.383   0.273  47.519  0.00  0.00    +0.244 C 
ATOM     73  O   GLU A  10      13.045  -0.506  48.411  0.00  0.00    -0.273 OA
ATOM     74  N   PRO A  11      14.279  -0.048  46.577  0.00  0.00    -0.272 N 
ATOM     75  CA  PRO A  11      14.951  -1.333  46.677  0.00  0.00    +0.152 C 
ATOM     76  CB  PRO A  11      15.917  -1.312  45.488  0.00  0.00    +0.031 C 
ATOM     77  CG  PRO A  11      15.287  -0.368  44.518  0.00  0.00    +0.024 C 
ATOM     78  CD  PRO A  11      14.737   0.709  45.401  0.00  0.00    +0.094 C 
BRANCH  75  79
ATOM     79  C   PRO A  11      15.739  -1.438  47.983  0.00  0.00    +0.241 C 
ATOM     80  N   VAL A  12      15.785  -2.652  48.539  0.00  0.00    -0.298 N 
ATOM     81  H   VAL A  12      15.270  -3.423  48.069  0.00  0.00    +0.150 HD
ATOM     82  O   PRO A  11      16.285  -0.439  48.466  0.00  0.00    -0.273 OA
BRANCH  80  83
ATOM     83  CA  VAL A  12      16.506  -2.961  49.753  0.00  0.00    +0.137 C 
BRANCH  83  84
ATOM     84  CB  VAL A  12      15.618  -3.794  50.735  0.00  0.00    +0.026 C 
ATOM     85  CG2 VAL A  12      16.449  -4.416  51.858  0.00  0.00    +0.002 C 
ATOM     86  CG1 VAL A  12      14.432  -2.948  51.282  0.00  0.00    +0.002 C 
ENDBRANCH  83  84
BRANCH  83  87
ATOM     87  C   VAL A  12      17.714  -3.806  49.359  0.00  0.00    +0.227 C 
ATOM     88  O   VAL A  12      17.550  -4.834  48.708  0.00  0.00    -0.286 OA
ENDBRANCH  83  87
ENDBRANCH  80  83
ENDBRANCH  75  79
ENDBRANCH  71  72
BRANCH  71  89
ATOM     89  CB  GLU A  10      13.786   2.548  48.357  0.00  0.00    +0.041 C 
BRANCH  89  90
ATOM     90  CG  GLU A  10      13.467   4.062  48.419  0.00  0.00    +0.116 C 
BRANCH  90  91
ATOM     91  CD  GLU A  10      13.592   4.765  47.065  0.00  0.00    +0.365 C 
ATOM     92  OE2 GLU A  10      12.968   5.843  46.896  0.00  0.00    -0.246 OA
ATOM     93  OE1 GLU A  10      14.277   4.246  46.166  0.00  0.00    -0.246 OA
ENDBRANCH  90  91
ENDBRANCH  89  90
ENDBRANCH  71  89
ENDBRANCH  68  71
ENDBRANCH  66  67
BRANCH  66  94
ATOM     94  CB  GLU A   9       8.695  -0.013  48.276  0.00  0.00    +0.041 C 
BRANCH  94  95
ATOM     95  CG  GLU A   9       7.545  -0.329  49.251  0.00  0.00    +0.116 C 
BRANCH  95  96
ATOM     96  CD  GLU A   9       7.901  -0.212  50.757  0.00  0.00    +0.365 C 
ATOM     97  OE2 GLU A   9       7.029  -0.556  51.589  0.00  0.00    -0.246 OA
ATOM     98  OE1 GLU A   9       9.029   0.206  51.127  0.00  0.00    -0.246 OA
ENDBRANCH  95  96
ENDBRANCH  94  95
ENDBRANCH  66  94
ENDBRANCH  64  66
ENDBRANCH  61  62
BRANCH  61  99
ATOM     99  CB  HIS A   8       7.150   4.492  45.244  0.00  0.00    +0.076 C 
BRANCH  99 100
ATOM    100  CG  HIS A   8       5.998   4.900  44.367  0.00  0.00    +0.082 A 
ATOM    101  CD2 HIS A   8       5.515   6.124  44.041  0.00  0.00    +0.115 A 
ATOM    102  NE2 HIS A   8       4.426   5.929  43.221  0.00  0.00    -0.221 NA
ATOM    103  CE1 HIS A   8       4.262   4.630  43.028  0.00  0.00    +0.199 A 
ATOM    104  ND1 HIS A   8       5.187   3.988  43.723  0.00  0.00    -0.227 NA
ENDBRANCH  99 100
ENDBRANCH  61  99
ENDBRANCH  58  61
ENDBRANCH  56  57
ENDBRANCH   2  56
TORSDOF 41
REMARK  Name = ../refined-set-2016/3p8z/3p8z_pocket.pdb
REMARK  249 active torsions:
REMARK  status: ('A' for Active; 'I' for Inactive)
REMARK    1  A    between atoms: _1  and  _3
REMARK    2  A    between atoms: _3  and  _4
REMARK    3  A    between atoms: _7  and  _9
REMARK    4  A    between atoms: _9  and  _10
REMARK    5  A    between atoms: _9  and  _12
REMARK    6  A    between atoms: _15  and  _17
REMARK    7  A    between atoms: _17  and  _18
REMARK    8  A    between atoms: _17  and  _20
REMARK    9  A    between atoms: _20  and  _21
REMARK   10  A    between atoms: _23  and  _25
REMARK   11  A    between atoms: _25  and  _26
REMARK   12  A    between atoms: _25  and  _28
REMARK   13  A    between atoms: _28  and  _29
REMARK   14  A    between atoms: _29  and  _30
REMARK   15  A    between atoms: _30  and  _31
REMARK   16  A    between atoms: _40  and  _42
REMARK   17  A    between atoms: _42  and  _43
REMARK   18  A    between atoms: _45  and  _47
REMARK   19  A    between atoms: _47  and  _48
REMARK   20  A    between atoms: _47  and  _50
REMARK   21  A    between atoms: _50  and  _51
REMARK   22  A    between atoms: _53  and  _55
REMARK   23  A    between atoms: _55  and  _56
REMARK   24  A    between atoms: _59  and  _61
REMARK   25  A    between atoms: _61  and  _62
REMARK   26  A    between atoms: _61  and  _64
REMARK   27  A    between atoms: _64  and  _65
REMARK   28  A    between atoms: _65  and  _66
REMARK   29  A    between atoms: _66  and  _67
REMARK   30  A    between atoms: _67  and  _68
REMARK   31  A    between atoms: _72  and  _74
REMARK   32  A    between atoms: _74  and  _75
REMARK   33  A    between atoms: _74  and  _77
REMARK   34  A    between atoms: _77  and  _78
REMARK   35  A    between atoms: _81  and  _83
REMARK   36  A    between atoms: _83  and  _84
REMARK   37  A    between atoms: _83  and  _86
REMARK   38  A    between atoms: _86  and  _87
REMARK   39  A    between atoms: _87  and  _88
REMARK   40  A    between atoms: _93  and  _95
REMARK   41  A    between atoms: _95  and  _96
REMARK   42  A    between atoms: _95  and  _98
REMARK   43  A    between atoms: _98  and  _99
REMARK   44  A    between atoms: _102  and  _104
REMARK   45  A    between atoms: _104  and  _105
REMARK   46  A    between atoms: _104  and  _107
REMARK   47  A    between atoms: _107  and  _108
REMARK   48  A    between atoms: _111  and  _113
REMARK   49  A    between atoms: _113  and  _114
REMARK   50  A    between atoms: _116  and  _118
REMARK   51  A    between atoms: _118  and  _119
REMARK   52  A    between atoms: _118  and  _121
REMARK   53  A    between atoms: _123  and  _125
REMARK   54  A    between atoms: _125  and  _126
REMARK   55  A    between atoms: _128  and  _130
REMARK   56  A    between atoms: _130  and  _131
REMARK   57  A    between atoms: _130  and  _133
REMARK   58  A    between atoms: _133  and  _134
REMARK   59  A    between atoms: _134  and  _135
REMARK   60  A    between atoms: _135  and  _136
REMARK   61  A    between atoms: _145  and  _147
REMARK   62  A    between atoms: _147  and  _148
REMARK   63  A    between atoms: _150  and  _152
REMARK   64  A    between atoms: _152  and  _153
REMARK   65  A    between atoms: _155  and  _157
REMARK   66  A    between atoms: _157  and  _158
REMARK   67  A    between atoms: _157  and  _160
REMARK   68  A    between atoms: _160  and  _161
REMARK   69  A    between atoms: _171  and  _173
REMARK   70  A    between atoms: _173  and  _174
REMARK   71  A    between atoms: _173  and  _176
REMARK   72  A    between atoms: _176  and  _177
REMARK   73  A    between atoms: _179  and  _181
REMARK   74  A    between atoms: _181  and  _182
REMARK   75  A    between atoms: _181  and  _184
REMARK   76  A    between atoms: _184  and  _185
REMARK   77  A    between atoms: _190  and  _191
REMARK   78  A    between atoms: _193  and  _195
REMARK   79  A    between atoms: _195  and  _196
REMARK   80  A    between atoms: _195  and  _198
REMARK   81  A    between atoms: _198  and  _199
REMARK   82  A    between atoms: _204  and  _205
REMARK   83  A    between atoms: _207  and  _209
REMARK   84  A    between atoms: _209  and  _210
REMARK   85  A    between atoms: _209  and  _212
REMARK   86  A    between atoms: _212  and  _213
REMARK   87  A    between atoms: _218  and  _219
REMARK   88  A    between atoms: _221  and  _223
REMARK   89  A    between atoms: _223  and  _224
REMARK   90  A    between atoms: _223  and  _226
REMARK   91  A    between atoms: _226  and  _227
REMARK   92  A    between atoms: _230  and  _232
REMARK   93  A    between atoms: _232  and  _233
REMARK   94  A    between atoms: _232  and  _235
REMARK   95  A    between atoms: _235  and  _236
REMARK   96  A    between atoms: _236  and  _237
REMARK   97  A    between atoms: _237  and  _238
REMARK   98  A    between atoms: _238  and  _239
REMARK   99  A    between atoms: _243  and  _245
REMARK  100  A    between atoms: _245  and  _246
REMARK  101  A    between atoms: _248  and  _250
REMARK  102  A    between atoms: _250  and  _251
REMARK  103  A    between atoms: _254  and  _255
REMARK  104  A    between atoms: _260  and  _262
REMARK  105  A    between atoms: _262  and  _263
REMARK  106  A    between atoms: _265  and  _267
REMARK  107  A    between atoms: _267  and  _268
REMARK  108  A    between atoms: _267  and  _270
REMARK  109  A    between atoms: _270  and  _271
REMARK  110  A    between atoms: _276  and  _278
REMARK  111  A    between atoms: _278  and  _279
REMARK  112  A    between atoms: _278  and  _281
REMARK  113  A    between atoms: _281  and  _282
REMARK  114  A    between atoms: _282  and  _283
REMARK  115  A    between atoms: _286  and  _288
REMARK  116  A    between atoms: _288  and  _289
REMARK  117  A    between atoms: _288  and  _291
REMARK  118  A    between atoms: _291  and  _292
REMARK  119  A    between atoms: _292  and  _293
REMARK  120  A    between atoms: _297  and  _298
REMARK  121  A    between atoms: _303  and  _305
REMARK  122  A    between atoms: _305  and  _306
REMARK  123  A    between atoms: _305  and  _308
REMARK  124  A    between atoms: _311  and  _313
REMARK  125  A    between atoms: _313  and  _314
REMARK  126  A    between atoms: _313  and  _316
REMARK  127  A    between atoms: _316  and  _317
REMARK  128  A    between atoms: _317  and  _318
REMARK  129  A    between atoms: _320  and  _322
REMARK  130  A    between atoms: _322  and  _323
REMARK  131  A    between atoms: _322  and  _325
REMARK  132  A    between atoms: _325  and  _326
REMARK  133  A    between atoms: _328  and  _330
REMARK  134  A    between atoms: _330  and  _331
REMARK  135  A    between atoms: _333  and  _335
REMARK  136  A    between atoms: _335  and  _336
REMARK  137  A    between atoms: _335  and  _338
REMARK  138  A    between atoms: _338  and  _339
REMARK  139  A    between atoms: _339  and  _340
REMARK  140  A    between atoms: _340  and  _341
REMARK  141  A    between atoms: _341  and  _342
REMARK  142  A    between atoms: _346  and  _348
REMARK  143  A    between atoms: _348  and  _349
REMARK  144  A    between atoms: _348  and  _351
REMARK  145  A    between atoms: _351  and  _352
REMARK  146  A    between atoms: _355  and  _357
REMARK  147  A    between atoms: _357  and  _358
REMARK  148  A    between atoms: _357  and  _360
REMARK  149  A    between atoms: _363  and  _365
REMARK  150  A    between atoms: _365  and  _366
REMARK  151  A    between atoms: _365  and  _368
REMARK  152  A    between atoms: _368  and  _369
REMARK  153  A    between atoms: _375  and  _377
REMARK  154  A    between atoms: _377  and  _378
REMARK  155  A    between atoms: _377  and  _380
REMARK  156  A    between atoms: _380  and  _381
REMARK  157  A    between atoms: _386  and  _387
REMARK  158  A    between atoms: _389  and  _391
REMARK  159  A    between atoms: _391  and  _392
REMARK  160  A    between atoms: _391  and  _394
REMARK  161  A    between atoms: _394  and  _395
REMARK  162  A    between atoms: _398  and  _400
REMARK  163  A    between atoms: _400  and  _401
REMARK  164  A    between atoms: _400  and  _403
REMARK  165  A    between atoms: _403  and  _404
REMARK  166  A    between atoms: _407  and  _409
REMARK  167  A    between atoms: _409  and  _410
REMARK  168  A    between atoms: _409  and  _412
REMARK  169  A    between atoms: _414  and  _416
REMARK  170  A    between atoms: _416  and  _417
REMARK  171  A    between atoms: _416  and  _419
REMARK  172  A    between atoms: _419  and  _420
REMARK  173  A    between atoms: _423  and  _425
REMARK  174  A    between atoms: _425  and  _426
REMARK  175  A    between atoms: _425  and  _428
REMARK  176  A    between atoms: _428  and  _429
REMARK  177  A    between atoms: _432  and  _434
REMARK  178  A    between atoms: _434  and  _435
REMARK  179  A    between atoms: _437  and  _439
REMARK  180  A    between atoms: _439  and  _440
REMARK  181  A    between atoms: _439  and  _442
REMARK  182  A    between atoms: _442  and  _443
REMARK  183  A    between atoms: _443  and  _444
REMARK  184  A    between atoms: _447  and  _449
REMARK  185  A    between atoms: _449  and  _450
REMARK  186  A    between atoms: _449  and  _452
REMARK  187  A    between atoms: _452  and  _453
REMARK  188  A    between atoms: _455  and  _457
REMARK  189  A    between atoms: _457  and  _458
REMARK  190  A    between atoms: _457  and  _460
REMARK  191  A    between atoms: _460  and  _461
REMARK  192  A    between atoms: _461  and  _462
REMARK  193  A    between atoms: _462  and  _463
REMARK  194  A    between atoms: _472  and  _474
REMARK  195  A    between atoms: _474  and  _475
REMARK  196  A    between atoms: _474  and  _477
REMARK  197  A    between atoms: _477  and  _478
REMARK  198  A    between atoms: _481  and  _483
REMARK  199  A    between atoms: _483  and  _484
REMARK  200  A    between atoms: _483  and  _486
REMARK  201  A    between atoms: _486  and  _487
REMARK  202  A    between atoms: _490  and  _492
REMARK  203  A    between atoms: _492  and  _493
REMARK  204  A    between atoms: _492  and  _495
REMARK  205  A    between atoms: _495  and  _496
REMARK  206  A    between atoms: _496  and  _497
REMARK  207  A    between atoms: _497  and  _498
REMARK  208  A    between atoms: _507  and  _509
REMARK  209  A    between atoms: _509  and  _510
REMARK  210  A    between atoms: _509  and  _512
REMARK  211  A    between atoms: _515  and  _517
REMARK  212  A    between atoms: _517  and  _518
REMARK  213  A    between atoms: _517  and  _520
REMARK  214  A    between atoms: _520  and  _521
REMARK  215  A    between atoms: _524  and  _526
REMARK  216  A    between atoms: _526  and  _527
REMARK  217  A    between atoms: _526  and  _529
REMARK  218  A    between atoms: _529  and  _530
REMARK  219  A    between atoms: _530  and  _531
REMARK  220  A    between atoms: _531  and  _532
REMARK  221  A    between atoms: _532  and  _533
REMARK  222  A    between atoms: _537  and  _539
REMARK  223  A    between atoms: _539  and  _540
REMARK  224  A    between atoms: _539  and  _542
REMARK  225  A    between atoms: _542  and  _543
REMARK  226  A    between atoms: _543  and  _544
REMARK  227  A    between atoms: _546  and  _548
REMARK  228  A    between atoms: _548  and  _549
REMARK  229  A    between atoms: _548  and  _551
REMARK  230  A    between atoms: _554  and  _556
REMARK  231  A    between atoms: _556  and  _557
REMARK  232  A    between atoms: _556  and  _559
REMARK  233  A    between atoms: _559  and  _560
REMARK  234  A    between atoms: _570  and  _572
REMARK  235  A    between atoms: _572  and  _573
REMARK  236  A    between atoms: _572  and  _575
REMARK  237  A    between atoms: _575  and  _576
REMARK  238  A    between atoms: _576  and  _577
REMARK  239  A    between atoms: _577  and  _578
REMARK  240  A    between atoms: _578  and  _579
REMARK  241  A    between atoms: _583  and  _585
REMARK  242  A    between atoms: _585  and  _586
REMARK  243  A    between atoms: _585  and  _588
REMARK  244  A    between atoms: _588  and  _589
REMARK  245  A    between atoms: _592  and  _594
REMARK  246  A    between atoms: _594  and  _595
REMARK  247  A    between atoms: _594  and  _597
REMARK  248  A    between atoms: _597  and  _598
REMARK  249  A    between atoms: _603  and  _604
REMARK                            x       y       z     vdW  Elec       q    Type
REMARK                         _______ _______ _______ _____ _____    ______ ____
ROOT
ATOM      1  C   ASP A   5       8.956   4.195  34.485  0.00  0.00    +0.241 C 
ATOM      2  N   VAL A   6       8.493   2.951  34.568  0.00  0.00    -0.297 N 
ATOM      3  H   VAL A   6       8.046   2.629  35.450  0.00  0.00    +0.150 HD
ATOM      4  O   ASP A   5       9.411   4.650  33.444  0.00  0.00    -0.273 OA
ENDROOT
BRANCH   2   5
ATOM      5  CA  VAL A   6       8.604   2.016  33.424  0.00  0.00    +0.149 C 
BRANCH   5   6
ATOM      6  C   VAL A   6       7.716   2.372  32.212  0.00  0.00    +0.241 C 
ATOM      7  N   PHE A   7       6.745   3.249  32.423  0.00  0.00    -0.297 N 
ATOM      8  H   PHE A   7       6.546   3.570  33.392  0.00  0.00    +0.150 HD
ATOM      9  O   VAL A   6       7.906   1.870  31.088  0.00  0.00    -0.273 OA
BRANCH   7  10
ATOM     10  CA  PHE A   7       5.961   3.764  31.327  0.00  0.00    +0.153 C 
BRANCH  10  11
ATOM     11  C   PHE A   7       6.892   4.485  30.322  0.00  0.00    +0.241 C 
ATOM     12  N   TYR A   8       7.986   5.073  30.817  0.00  0.00    -0.297 N 
ATOM     13  H   TYR A   8       8.180   5.013  31.837  0.00  0.00    +0.150 HD
ATOM     14  O   PHE A   7       6.620   4.446  29.123  0.00  0.00    -0.273 OA
BRANCH  12  15
ATOM     15  CA  TYR A   8       8.921   5.803  29.947  0.00  0.00    +0.153 C 
BRANCH  15  16
ATOM     16  C   TYR A   8      10.121   4.988  29.475  0.00  0.00    +0.241 C 
ATOM     17  N   LEU A   9      10.182   3.712  29.848  0.00  0.00    -0.298 N 
ATOM     18  H   LEU A   9       9.383   3.289  30.361  0.00  0.00    +0.150 HD
ATOM     19  O   TYR A   8      10.970   5.504  28.753  0.00  0.00    -0.273 OA
BRANCH  17  20
ATOM     20  CA  LEU A   9      11.364   2.893  29.544  0.00  0.00    +0.137 C 
BRANCH  20  21
ATOM     21  C   LEU A   9      11.263   2.283  28.169  0.00  0.00    +0.227 C 
ATOM     22  O   LEU A   9      10.211   1.763  27.807  0.00  0.00    -0.286 OA
ENDBRANCH  20  21
BRANCH  20  23
ATOM     23  CB  LEU A   9      11.540   1.785  30.595  0.00  0.00    +0.028 C 
BRANCH  23  24
ATOM     24  CG  LEU A   9      12.050   2.219  31.959  0.00  0.00    +0.002 C 
ATOM     25  CD2 LEU A   9      12.119   1.032  32.875  0.00  0.00    +0.000 C 
ATOM     26  CD1 LEU A   9      13.418   2.918  31.894  0.00  0.00    +0.000 C 
ENDBRANCH  23  24
ENDBRANCH  20  23
ENDBRANCH  17  20
ENDBRANCH  15  16
BRANCH  15  27
ATOM     27  CB  TYR A   8       9.349   7.101  30.629  0.00  0.00    +0.055 C 
BRANCH  27  28
ATOM     28  CG  TYR A   8       8.155   8.012  30.858  0.00  0.00    -0.020 A 
ATOM     29  CD2 TYR A   8       7.737   8.330  32.154  0.00  0.00    -0.001 A 
ATOM     30  CE2 TYR A   8       6.634   9.169  32.373  0.00  0.00    +0.036 A 
ATOM     31  CZ  TYR A   8       5.931   9.696  31.271  0.00  0.00    +0.134 A 
ATOM     32  CE1 TYR A   8       6.312   9.378  29.971  0.00  0.00    +0.036 A 
ATOM     33  CD1 TYR A   8       7.423   8.530  29.767  0.00  0.00    -0.001 A 
BRANCH  31  34
ATOM     34  OH  TYR A   8       4.828  10.508  31.468  0.00  0.00    -0.506 OA
ATOM     35  HH  TYR A   8       4.687  10.641  32.439  0.00  0.00    +0.292 HD
ENDBRANCH  31  34
ENDBRANCH  27  28
ENDBRANCH  15  27
ENDBRANCH  12  15
ENDBRANCH  10  11
BRANCH  10  36
ATOM     36  CB  PHE A   7       4.868   4.673  31.873  0.00  0.00    +0.055 C 
BRANCH  36  37
ATOM     37  CG  PHE A   7       3.950   5.241  30.846  0.00  0.00    -0.020 A 
ATOM     38  CD2 PHE A   7       2.681   4.679  30.635  0.00  0.00    -0.004 A 
ATOM     39  CE2 PHE A   7       1.779   5.251  29.674  0.00  0.00    -0.000 A 
ATOM     40  CZ  PHE A   7       2.175   6.397  28.958  0.00  0.00    -0.000 A 
ATOM     41  CE1 PHE A   7       3.445   6.963  29.175  0.00  0.00    -0.000 A 
ATOM     42  CD1 PHE A   7       4.311   6.404  30.126  0.00  0.00    -0.004 A 
ENDBRANCH  36  37
ENDBRANCH  10  36
ENDBRANCH   7  10
ENDBRANCH   5   6
BRANCH   5  43
ATOM     43  CB  VAL A   6       8.396   0.523  33.901  0.00  0.00    +0.027 C 
ATOM     44  CG2 VAL A   6       9.349   0.206  35.049  0.00  0.00    +0.002 C 
ATOM     45  CG1 VAL A   6       6.962   0.313  34.306  0.00  0.00    +0.002 C 
ENDBRANCH   5  43
ENDBRANCH   2   5
BRANCH   1  46
ATOM     46  CA  ASP A   5       8.894   5.043  35.760  0.00  0.00    +0.160 C 
BRANCH  46  49
ATOM     47  C   LYS A   4      10.948   4.406  36.917  0.00  0.00    +0.241 C 
ATOM     48  O   LYS A   4      10.424   3.418  37.450  0.00  0.00    -0.273 OA
ATOM     49  N   ASP A   5      10.270   5.283  36.191  0.00  0.00    -0.297 N 
ATOM     50  H   ASP A   5      10.733   6.173  35.918  0.00  0.00    +0.150 HD
BRANCH  47  51
ATOM     51  CA  LYS A   4      12.443   4.673  37.081  0.00  0.00    +0.149 C 
BRANCH  51  53
ATOM     52  C   GLY A   3      13.377   6.277  38.639  0.00  0.00    +0.243 C 
ATOM     53  N   LYS A   4      12.722   5.126  38.411  0.00  0.00    -0.297 N 
ATOM     54  H   LYS A   4      12.410   4.551  39.219  0.00  0.00    +0.150 HD
ATOM     55  O   GLY A   3      13.640   7.085  37.738  0.00  0.00    -0.273 OA
BRANCH  52  56
ATOM     56  CA  GLY A   3      13.764   6.562  40.071  0.00  0.00    +0.176 C 
BRANCH  56  58
ATOM     57  C   SER A   2      14.938   4.514  40.718  0.00  0.00    +0.243 C 
ATOM     58  N   GLY A   3      13.894   5.328  40.873  0.00  0.00    -0.295 N 
ATOM     59  H   GLY A   3      13.159   5.091  41.570  0.00  0.00    +0.150 HD
ATOM     60  O   SER A   2      15.873   4.765  39.933  0.00  0.00    -0.273 OA
BRANCH  57  61
ATOM     61  CA  SER A   2      14.955   3.227  41.578  0.00  0.00    +0.178 C 
BRANCH  61  63
ATOM     62  C   MET A   1      15.924   1.437  40.265  0.00  0.00    +0.238 C 
ATOM     63  N   SER A   2      16.051   2.374  41.194  0.00  0.00    -0.295 N 
ATOM     64  H   SER A   2      16.972   2.498  41.661  0.00  0.00    +0.150 HD
ATOM     65  O   MET A   1      14.861   1.155  39.709  0.00  0.00    -0.274 OA
BRANCH  62  66
ATOM     66  CA  MET A   1      17.201   0.709  39.909  0.00  0.00    +0.146 C 
BRANCH  66  67
ATOM     67  N   MET A   1      17.088  -0.727  40.195  0.00  0.00    -0.238 NA
ATOM     68  H   MET A   1      16.342  -1.285  39.733  0.00  0.00    +0.142 HD
ENDBRANCH  66  67
BRANCH  66  69
ATOM     69  CB  MET A   1      17.541   0.926  38.446  0.00  0.00    +0.038 C 
BRANCH  69  70
ATOM     70  CG  MET A   1      19.010   0.690  38.184  0.00  0.00    +0.060 C 
BRANCH  70  71
ATOM     71  SD  MET A   1      19.274   0.199  36.494  0.00  0.00    -0.139 S 
ATOM     72  CE  MET A   1      18.736  -1.511  36.681  0.00  0.00    +0.069 C 
ENDBRANCH  70  71
ENDBRANCH  69  70
ENDBRANCH  66  69
ENDBRANCH  62  66
ENDBRANCH  61  63
BRANCH  61  73
ATOM     73  CB  SER A   2      15.065   3.530  43.064  0.00  0.00    +0.166 C 
BRANCH  73  74
ATOM     74  OG  SER A   2      13.860   4.072  43.558  0.00  0.00    -0.380 OA
ATOM     75  H   SER A   2      13.956   4.260  44.525  0.00  0.00    +0.211 HD
ENDBRANCH  73  74
ENDBRANCH  61  73
ENDBRANCH  57  61
ENDBRANCH  56  58
ENDBRANCH  52  56
ENDBRANCH  51  53
BRANCH  51  76
ATOM     76  CB  LYS A   4      13.241   3.387  36.749  0.00  0.00    +0.029 C 
BRANCH  76  77
ATOM     77  CG  LYS A   4      14.767   3.547  36.696  0.00  0.00    +0.000 C 
BRANCH  77  78
ATOM     78  CD  LYS A   4      15.221   4.140  35.380  0.00  0.00    -0.024 C 
BRANCH  78  79
ATOM     79  CE  LYS A   4      16.718   3.924  35.184  0.00  0.00    -0.086 C 
BRANCH  79  80
ATOM     80  NZ  LYS A   4      17.286   4.874  34.185  0.00  0.00    +0.380 N 
ATOM     81  HZ1 LYS A   4      17.135   5.850  34.512  0.00  0.00    -0.089 HD
ATOM     82  HZ2 LYS A   4      18.305   4.696  34.079  0.00  0.00    -0.089 HD
ATOM     83  HZ3 LYS A   4      16.812   4.737  33.269  0.00  0.00    -0.089 HD
ENDBRANCH  79  80
ENDBRANCH  78  79
ENDBRANCH  77  78
ENDBRANCH  76  77
ENDBRANCH  51  76
ENDBRANCH  47  51
ENDBRANCH  46  49
BRANCH  46  84
ATOM     84  CB  ASP A   5       8.135   6.384  35.536  0.00  0.00    +0.143 C 
BRANCH  84  85
ATOM     85  CG  ASP A   5       6.659   6.188  35.161  0.00  0.00    +0.367 C 
ATOM     86  OD2 ASP A   5       5.874   7.167  35.231  0.00  0.00    -0.246 OA
ATOM     87  OD1 ASP A   5       6.237   5.069  34.783  0.00  0.00    -0.246 OA
ENDBRANCH  84  85
ENDBRANCH  46  84
ENDBRANCH   1  46
TORSDOF 38
REMARK  Name = ../refined-set-2016/3p8z/3p8z_pocket.pdb
REMARK  249 active torsions:
REMARK  status: ('A' for Active; 'I' for Inactive)
REMARK    1  A    between atoms: _1  and  _3
REMARK    2  A    between atoms: _3  and  _4
REMARK    3  A    between atoms: _7  and  _9
REMARK    4  A    between atoms: _9  and  _10
REMARK    5  A    between atoms: _9  and  _12
REMARK    6  A    between atoms: _15  and  _17
REMARK    7  A    between atoms: _17  and  _18
REMARK    8  A    between atoms: _17  and  _20
REMARK    9  A    between atoms: _20  and  _21
REMARK   10  A    between atoms: _23  and  _25
REMARK   11  A    between atoms: _25  and  _26
REMARK   12  A    between atoms: _25  and  _28
REMARK   13  A    between atoms: _28  and  _29
REMARK   14  A    between atoms: _29  and  _30
REMARK   15  A    between atoms: _30  and  _31
REMARK   16  A    between atoms: _40  and  _42
REMARK   17  A    between atoms: _42  and  _43
REMARK   18  A    between atoms: _45  and  _47
REMARK   19  A    between atoms: _47  and  _48
REMARK   20  A    between atoms: _47  and  _50
REMARK   21  A    between atoms: _50  and  _51
REMARK   22  A    between atoms: _53  and  _55
REMARK   23  A    between atoms: _55  and  _56
REMARK   24  A    between atoms: _59  and  _61
REMARK   25  A    between atoms: _61  and  _62
REMARK   26  A    between atoms: _61  and  _64
REMARK   27  A    between atoms: _64  and  _65
REMARK   28  A    between atoms: _65  and  _66
REMARK   29  A    between atoms: _66  and  _67
REMARK   30  A    between atoms: _67  and  _68
REMARK   31  A    between atoms: _72  and  _74
REMARK   32  A    between atoms: _74  and  _75
REMARK   33  A    between atoms: _74  and  _77
REMARK   34  A    between atoms: _77  and  _78
REMARK   35  A    between atoms: _81  and  _83
REMARK   36  A    between atoms: _83  and  _84
REMARK   37  A    between atoms: _83  and  _86
REMARK   38  A    between atoms: _86  and  _87
REMARK   39  A    between atoms: _87  and  _88
REMARK   40  A    between atoms: _93  and  _95
REMARK   41  A    between atoms: _95  and  _96
REMARK   42  A    between atoms: _95  and  _98
REMARK   43  A    between atoms: _98  and  _99
REMARK   44  A    between atoms: _102  and  _104
REMARK   45  A    between atoms: _104  and  _105
REMARK   46  A    between atoms: _104  and  _107
REMARK   47  A    between atoms: _107  and  _108
REMARK   48  A    between atoms: _111  and  _113
REMARK   49  A    between atoms: _113  and  _114
REMARK   50  A    between atoms: _116  and  _118
REMARK   51  A    between atoms: _118  and  _119
REMARK   52  A    between atoms: _118  and  _121
REMARK   53  A    between atoms: _123  and  _125
REMARK   54  A    between atoms: _125  and  _126
REMARK   55  A    between atoms: _128  and  _130
REMARK   56  A    between atoms: _130  and  _131
REMARK   57  A    between atoms: _130  and  _133
REMARK   58  A    between atoms: _133  and  _134
REMARK   59  A    between atoms: _134  and  _135
REMARK   60  A    between atoms: _135  and  _136
REMARK   61  A    between atoms: _145  and  _147
REMARK   62  A    between atoms: _147  and  _148
REMARK   63  A    between atoms: _150  and  _152
REMARK   64  A    between atoms: _152  and  _153
REMARK   65  A    between atoms: _155  and  _157
REMARK   66  A    between atoms: _157  and  _158
REMARK   67  A    between atoms: _157  and  _160
REMARK   68  A    between atoms: _160  and  _161
REMARK   69  A    between atoms: _171  and  _173
REMARK   70  A    between atoms: _173  and  _174
REMARK   71  A    between atoms: _173  and  _176
REMARK   72  A    between atoms: _176  and  _177
REMARK   73  A    between atoms: _179  and  _181
REMARK   74  A    between atoms: _181  and  _182
REMARK   75  A    between atoms: _181  and  _184
REMARK   76  A    between atoms: _184  and  _185
REMARK   77  A    between atoms: _190  and  _191
REMARK   78  A    between atoms: _193  and  _195
REMARK   79  A    between atoms: _195  and  _196
REMARK   80  A    between atoms: _195  and  _198
REMARK   81  A    between atoms: _198  and  _199
REMARK   82  A    between atoms: _204  and  _205
REMARK   83  A    between atoms: _207  and  _209
REMARK   84  A    between atoms: _209  and  _210
REMARK   85  A    between atoms: _209  and  _212
REMARK   86  A    between atoms: _212  and  _213
REMARK   87  A    between atoms: _218  and  _219
REMARK   88  A    between atoms: _221  and  _223
REMARK   89  A    between atoms: _223  and  _224
REMARK   90  A    between atoms: _223  and  _226
REMARK   91  A    between atoms: _226  and  _227
REMARK   92  A    between atoms: _230  and  _232
REMARK   93  A    between atoms: _232  and  _233
REMARK   94  A    between atoms: _232  and  _235
REMARK   95  A    between atoms: _235  and  _236
REMARK   96  A    between atoms: _236  and  _237
REMARK   97  A    between atoms: _237  and  _238
REMARK   98  A    between atoms: _238  and  _239
REMARK   99  A    between atoms: _243  and  _245
REMARK  100  A    between atoms: _245  and  _246
REMARK  101  A    between atoms: _248  and  _250
REMARK  102  A    between atoms: _250  and  _251
REMARK  103  A    between atoms: _254  and  _255
REMARK  104  A    between atoms: _260  and  _262
REMARK  105  A    between atoms: _262  and  _263
REMARK  106  A    between atoms: _265  and  _267
REMARK  107  A    between atoms: _267  and  _268
REMARK  108  A    between atoms: _267  and  _270
REMARK  109  A    between atoms: _270  and  _271
REMARK  110  A    between atoms: _276  and  _278
REMARK  111  A    between atoms: _278  and  _279
REMARK  112  A    between atoms: _278  and  _281
REMARK  113  A    between atoms: _281  and  _282
REMARK  114  A    between atoms: _282  and  _283
REMARK  115  A    between atoms: _286  and  _288
REMARK  116  A    between atoms: _288  and  _289
REMARK  117  A    between atoms: _288  and  _291
REMARK  118  A    between atoms: _291  and  _292
REMARK  119  A    between atoms: _292  and  _293
REMARK  120  A    between atoms: _297  and  _298
REMARK  121  A    between atoms: _303  and  _305
REMARK  122  A    between atoms: _305  and  _306
REMARK  123  A    between atoms: _305  and  _308
REMARK  124  A    between atoms: _311  and  _313
REMARK  125  A    between atoms: _313  and  _314
REMARK  126  A    between atoms: _313  and  _316
REMARK  127  A    between atoms: _316  and  _317
REMARK  128  A    between atoms: _317  and  _318
REMARK  129  A    between atoms: _320  and  _322
REMARK  130  A    between atoms: _322  and  _323
REMARK  131  A    between atoms: _322  and  _325
REMARK  132  A    between atoms: _325  and  _326
REMARK  133  A    between atoms: _328  and  _330
REMARK  134  A    between atoms: _330  and  _331
REMARK  135  A    between atoms: _333  and  _335
REMARK  136  A    between atoms: _335  and  _336
REMARK  137  A    between atoms: _335  and  _338
REMARK  138  A    between atoms: _338  and  _339
REMARK  139  A    between atoms: _339  and  _340
REMARK  140  A    between atoms: _340  and  _341
REMARK  141  A    between atoms: _341  and  _342
REMARK  142  A    between atoms: _346  and  _348
REMARK  143  A    between atoms: _348  and  _349
REMARK  144  A    between atoms: _348  and  _351
REMARK  145  A    between atoms: _351  and  _352
REMARK  146  A    between atoms: _355  and  _357
REMARK  147  A    between atoms: _357  and  _358
REMARK  148  A    between atoms: _357  and  _360
REMARK  149  A    between atoms: _363  and  _365
REMARK  150  A    between atoms: _365  and  _366
REMARK  151  A    between atoms: _365  and  _368
REMARK  152  A    between atoms: _368  and  _369
REMARK  153  A    between atoms: _375  and  _377
REMARK  154  A    between atoms: _377  and  _378
REMARK  155  A    between atoms: _377  and  _380
REMARK  156  A    between atoms: _380  and  _381
REMARK  157  A    between atoms: _386  and  _387
REMARK  158  A    between atoms: _389  and  _391
REMARK  159  A    between atoms: _391  and  _392
REMARK  160  A    between atoms: _391  and  _394
REMARK  161  A    between atoms: _394  and  _395
REMARK  162  A    between atoms: _398  and  _400
REMARK  163  A    between atoms: _400  and  _401
REMARK  164  A    between atoms: _400  and  _403
REMARK  165  A    between atoms: _403  and  _404
REMARK  166  A    between atoms: _407  and  _409
REMARK  167  A    between atoms: _409  and  _410
REMARK  168  A    between atoms: _409  and  _412
REMARK  169  A    between atoms: _414  and  _416
REMARK  170  A    between atoms: _416  and  _417
REMARK  171  A    between atoms: _416  and  _419
REMARK  172  A    between atoms: _419  and  _420
REMARK  173  A    between atoms: _423  and  _425
REMARK  174  A    between atoms: _425  and  _426
REMARK  175  A    between atoms: _425  and  _428
REMARK  176  A    between atoms: _428  and  _429
REMARK  177  A    between atoms: _432  and  _434
REMARK  178  A    between atoms: _434  and  _435
REMARK  179  A    between atoms: _437  and  _439
REMARK  180  A    between atoms: _439  and  _440
REMARK  181  A    between atoms: _439  and  _442
REMARK  182  A    between atoms: _442  and  _443
REMARK  183  A    between atoms: _443  and  _444
REMARK  184  A    between atoms: _447  and  _449
REMARK  185  A    between atoms: _449  and  _450
REMARK  186  A    between atoms: _449  and  _452
REMARK  187  A    between atoms: _452  and  _453
REMARK  188  A    between atoms: _455  and  _457
REMARK  189  A    between atoms: _457  and  _458
REMARK  190  A    between atoms: _457  and  _460
REMARK  191  A    between atoms: _460  and  _461
REMARK  192  A    between atoms: _461  and  _462
REMARK  193  A    between atoms: _462  and  _463
REMARK  194  A    between atoms: _472  and  _474
REMARK  195  A    between atoms: _474  and  _475
REMARK  196  A    between atoms: _474  and  _477
REMARK  197  A    between atoms: _477  and  _478
REMARK  198  A    between atoms: _481  and  _483
REMARK  199  A    between atoms: _483  and  _484
REMARK  200  A    between atoms: _483  and  _486
REMARK  201  A    between atoms: _486  and  _487
REMARK  202  A    between atoms: _490  and  _492
REMARK  203  A    between atoms: _492  and  _493
REMARK  204  A    between atoms: _492  and  _495
REMARK  205  A    between atoms: _495  and  _496
REMARK  206  A    between atoms: _496  and  _497
REMARK  207  A    between atoms: _497  and  _498
REMARK  208  A    between atoms: _507  and  _509
REMARK  209  A    between atoms: _509  and  _510
REMARK  210  A    between atoms: _509  and  _512
REMARK  211  A    between atoms: _515  and  _517
REMARK  212  A    between atoms: _517  and  _518
REMARK  213  A    between atoms: _517  and  _520
REMARK  214  A    between atoms: _520  and  _521
REMARK  215  A    between atoms: _524  and  _526
REMARK  216  A    between atoms: _526  and  _527
REMARK  217  A    between atoms: _526  and  _529
REMARK  218  A    between atoms: _529  and  _530
REMARK  219  A    between atoms: _530  and  _531
REMARK  220  A    between atoms: _531  and  _532
REMARK  221  A    between atoms: _532  and  _533
REMARK  222  A    between atoms: _537  and  _539
REMARK  223  A    between atoms: _539  and  _540
REMARK  224  A    between atoms: _539  and  _542
REMARK  225  A    between atoms: _542  and  _543
REMARK  226  A    between atoms: _543  and  _544
REMARK  227  A    between atoms: _546  and  _548
REMARK  228  A    between atoms: _548  and  _549
REMARK  229  A    between atoms: _548  and  _551
REMARK  230  A    between atoms: _554  and  _556
REMARK  231  A    between atoms: _556  and  _557
REMARK  232  A    between atoms: _556  and  _559
REMARK  233  A    between atoms: _559  and  _560
REMARK  234  A    between atoms: _570  and  _572
REMARK  235  A    between atoms: _572  and  _573
REMARK  236  A    between atoms: _572  and  _575
REMARK  237  A    between atoms: _575  and  _576
REMARK  238  A    between atoms: _576  and  _577
REMARK  239  A    between atoms: _577  and  _578
REMARK  240  A    between atoms: _578  and  _579
REMARK  241  A    between atoms: _583  and  _585
REMARK  242  A    between atoms: _585  and  _586
REMARK  243  A    between atoms: _585  and  _588
REMARK  244  A    between atoms: _588  and  _589
REMARK  245  A    between atoms: _592  and  _594
REMARK  246  A    between atoms: _594  and  _595
REMARK  247  A    between atoms: _594  and  _597
REMARK  248  A    between atoms: _597  and  _598
REMARK  249  A    between atoms: _603  and  _604
REMARK                            x       y       z     vdW  Elec       q    Type
REMARK                         _______ _______ _______ _____ _____    ______ ____
ROOT
ATOM      1  C   ASP A   3       3.228  -5.190  39.714  0.00  0.00    +0.241 C 
ATOM      2  O   ASP A   3       2.830  -4.881  40.845  0.00  0.00    -0.273 OA
ATOM      3  N   ILE A   4       3.067  -4.414  38.660  0.00  0.00    -0.297 N 
ATOM      4  H   ILE A   4       3.325  -4.774  37.719  0.00  0.00    +0.150 HD
ENDROOT
BRANCH   3   5
ATOM      5  CA  ILE A   4       2.534  -3.060  38.787  0.00  0.00    +0.149 C 
BRANCH   5   6
ATOM      6  C   ILE A   4       1.029  -3.055  38.747  0.00  0.00    +0.241 C 
ATOM      7  N   GLY A   5       0.439  -2.305  39.677  0.00  0.00    -0.295 N 
ATOM      8  H   GLY A   5       0.989  -1.936  40.479  0.00  0.00    +0.150 HD
ATOM      9  O   ILE A   4       0.414  -3.652  37.853  0.00  0.00    -0.273 OA
BRANCH   7  10
ATOM     10  CA  GLY A   5      -0.982  -2.006  39.563  0.00  0.00    +0.176 C 
BRANCH  10  11
ATOM     11  C   GLY A   5      -1.511  -1.574  40.908  0.00  0.00    +0.243 C 
ATOM     12  O   GLY A   5      -1.663  -2.381  41.796  0.00  0.00    -0.273 OA
ATOM     13  N   GLU A   6      -1.771  -0.281  41.051  0.00  0.00    -0.298 N 
ATOM     14  H   GLU A   6      -1.678   0.355  40.234  0.00  0.00    +0.150 HD
BRANCH  13  15
ATOM     15  CA  GLU A   6      -2.184   0.257  42.337  0.00  0.00    +0.137 C 
BRANCH  15  16
ATOM     16  C   GLU A   6      -3.713   0.238  42.497  0.00  0.00    +0.227 C 
ATOM     17  O   GLU A   6      -4.451   0.748  41.640  0.00  0.00    -0.286 OA
ENDBRANCH  15  16
BRANCH  15  18
ATOM     18  CB  GLU A   6      -1.665   1.688  42.507  0.00  0.00    +0.039 C 
BRANCH  18  19
ATOM     19  CG  GLU A   6      -1.891   2.191  43.935  0.00  0.00    +0.116 C 
BRANCH  19  20
ATOM     20  CD  GLU A   6      -1.618   3.703  44.113  0.00  0.00    +0.365 C 
ATOM     21  OE2 GLU A   6      -1.917   4.212  45.216  0.00  0.00    -0.246 OA
ATOM     22  OE1 GLU A   6      -1.123   4.377  43.164  0.00  0.00    -0.246 OA
ENDBRANCH  19  20
ENDBRANCH  18  19
ENDBRANCH  15  18
ENDBRANCH  13  15
ENDBRANCH  10  11
ENDBRANCH   7  10
ENDBRANCH   5   6
BRANCH   5  23
ATOM     23  CB  ILE A   4       3.083  -2.138  37.666  0.00  0.00    +0.027 C 
ATOM     24  CG2 ILE A   4       2.354  -0.733  37.659  0.00  0.00    +0.002 C 
BRANCH  23  25
ATOM     25  CG1 ILE A   4       4.581  -1.946  37.904  0.00  0.00    +0.002 C 
ATOM     26  CD1 ILE A   4       5.299  -1.237  36.725  0.00  0.00    +0.000 C 
ENDBRANCH  23  25
ENDBRANCH   5  23
ENDBRANCH   3   5
BRANCH   1  27
ATOM     27  CA  ASP A   3       3.885  -6.556  39.438  0.00  0.00    +0.160 C 
BRANCH  27  29
ATOM     28  C   CYS A   2       4.647  -7.234  37.185  0.00  0.00    +0.242 C 
ATOM     29  N   ASP A   3       4.798  -6.456  38.255  0.00  0.00    -0.297 N 
ATOM     30  H   ASP A   3       5.571  -5.760  38.270  0.00  0.00    +0.150 HD
ATOM     31  O   CYS A   2       3.737  -8.053  37.058  0.00  0.00    -0.273 OA
BRANCH  28  32
ATOM     32  CA  CYS A   2       5.664  -7.092  36.061  0.00  0.00    +0.160 C 
BRANCH  32  34
ATOM     33  C   LEU A   1       7.457  -8.555  35.368  0.00  0.00    +0.238 C 
ATOM     34  N   CYS A   2       6.214  -8.429  35.810  0.00  0.00    -0.297 N 
ATOM     35  H   CYS A   2       5.631  -9.274  35.978  0.00  0.00    +0.150 HD
ATOM     36  O   LEU A   1       8.204  -7.601  35.161  0.00  0.00    -0.274 OA
BRANCH  33  37
ATOM     37  CA  LEU A   1       7.971  -9.956  35.181  0.00  0.00    +0.145 C 
BRANCH  37  38
ATOM     38  N   LEU A   1       8.861  -9.897  34.024  0.00  0.00    -0.238 NA
ATOM     39  H   LEU A   1       9.709  -9.297  34.069  0.00  0.00    +0.142 HD
ENDBRANCH  37  38
BRANCH  37  40
ATOM     40  CB  LEU A   1       8.748 -10.324  36.418  0.00  0.00    +0.026 C 
BRANCH  40  41
ATOM     41  CG  LEU A   1       9.604 -11.609  36.304  0.00  0.00    +0.002 C 
ATOM     42  CD2 LEU A   1      10.368 -11.816  37.568  0.00  0.00    +0.000 C 
ATOM     43  CD1 LEU A   1       8.725 -12.800  35.985  0.00  0.00    +0.000 C 
ENDBRANCH  40  41
ENDBRANCH  37  40
ENDBRANCH  33  37
ENDBRANCH  32  34
BRANCH  32  44
ATOM     44  CB  CYS A   2       4.965  -6.529  34.827  0.00  0.00    +0.098 C 
ATOM     45  SG  CYS A   2       4.468  -4.764  35.183  0.00  0.00    -0.080 S 
ENDBRANCH  32  44
ENDBRANCH  28  32
ENDBRANCH  27  29
BRANCH  27  46
ATOM     46  CB  ASP A   3       4.640  -7.074  40.659  0.00  0.00    +0.143 C 
BRANCH  46  47
ATOM     47  CG  ASP A   3       3.720  -7.674  41.742  0.00  0.00    +0.367 C 
ATOM     48  OD2 ASP A   3       4.168  -7.724  42.905  0.00  0.00    -0.246 OA
ATOM     49  OD1 ASP A   3       2.603  -8.090  41.433  0.00  0.00    -0.246 OA
ENDBRANCH  46  47
ENDBRANCH  27  46
ENDBRANCH   1  27
TORSDOF 22
REMARK  Name = ../refined-set-2016/3p8z/3p8z_pocket.pdb
REMARK  249 active torsions:
REMARK  status: ('A' for Active; 'I' for Inactive)
REMARK    1  A    between atoms: _1  and  _3
REMARK    2  A    between atoms: _3  and  _4
REMARK    3  A    between atoms: _7  and  _9
REMARK    4  A    between atoms: _9  and  _10
REMARK    5  A    between atoms: _9  and  _12
REMARK    6  A    between atoms: _15  and  _17
REMARK    7  A    between atoms: _17  and  _18
REMARK    8  A    between atoms: _17  and  _20
REMARK    9  A    between atoms: _20  and  _21
REMARK   10  A    between atoms: _23  and  _25
REMARK   11  A    between atoms: _25  and  _26
REMARK   12  A    between atoms: _25  and  _28
REMARK   13  A    between atoms: _28  and  _29
REMARK   14  A    between atoms: _29  and  _30
REMARK   15  A    between atoms: _30  and  _31
REMARK   16  A    between atoms: _40  and  _42
REMARK   17  A    between atoms: _42  and  _43
REMARK   18  A    between atoms: _45  and  _47
REMARK   19  A    between atoms: _47  and  _48
REMARK   20  A    between atoms: _47  and  _50
REMARK   21  A    between atoms: _50  and  _51
REMARK   22  A    between atoms: _53  and  _55
REMARK   23  A    between atoms: _55  and  _56
REMARK   24  A    between atoms: _59  and  _61
REMARK   25  A    between atoms: _61  and  _62
REMARK   26  A    between atoms: _61  and  _64
REMARK   27  A    between atoms: _64  and  _65
REMARK   28  A    between atoms: _65  and  _66
REMARK   29  A    between atoms: _66  and  _67
REMARK   30  A    between atoms: _67  and  _68
REMARK   31  A    between atoms: _72  and  _74
REMARK   32  A    between atoms: _74  and  _75
REMARK   33  A    between atoms: _74  and  _77
REMARK   34  A    between atoms: _77  and  _78
REMARK   35  A    between atoms: _81  and  _83
REMARK   36  A    between atoms: _83  and  _84
REMARK   37  A    between atoms: _83  and  _86
REMARK   38  A    between atoms: _86  and  _87
REMARK   39  A    between atoms: _87  and  _88
REMARK   40  A    between atoms: _93  and  _95
REMARK   41  A    between atoms: _95  and  _96
REMARK   42  A    between atoms: _95  and  _98
REMARK   43  A    between atoms: _98  and  _99
REMARK   44  A    between atoms: _102  and  _104
REMARK   45  A    between atoms: _104  and  _105
REMARK   46  A    between atoms: _104  and  _107
REMARK   47  A    between atoms: _107  and  _108
REMARK   48  A    between atoms: _111  and  _113
REMARK   49  A    between atoms: _113  and  _114
REMARK   50  A    between atoms: _116  and  _118
REMARK   51  A    between atoms: _118  and  _119
REMARK   52  A    between atoms: _118  and  _121
REMARK   53  A    between atoms: _123  and  _125
REMARK   54  A    between atoms: _125  and  _126
REMARK   55  A    between atoms: _128  and  _130
REMARK   56  A    between atoms: _130  and  _131
REMARK   57  A    between atoms: _130  and  _133
REMARK   58  A    between atoms: _133  and  _134
REMARK   59  A    between atoms: _134  and  _135
REMARK   60  A    between atoms: _135  and  _136
REMARK   61  A    between atoms: _145  and  _147
REMARK   62  A    between atoms: _147  and  _148
REMARK   63  A    between atoms: _150  and  _152
REMARK   64  A    between atoms: _152  and  _153
REMARK   65  A    between atoms: _155  and  _157
REMARK   66  A    between atoms: _157  and  _158
REMARK   67  A    between atoms: _157  and  _160
REMARK   68  A    between atoms: _160  and  _161
REMARK   69  A    between atoms: _171  and  _173
REMARK   70  A    between atoms: _173  and  _174
REMARK   71  A    between atoms: _173  and  _176
REMARK   72  A    between atoms: _176  and  _177
REMARK   73  A    between atoms: _179  and  _181
REMARK   74  A    between atoms: _181  and  _182
REMARK   75  A    between atoms: _181  and  _184
REMARK   76  A    between atoms: _184  and  _185
REMARK   77  A    between atoms: _190  and  _191
REMARK   78  A    between atoms: _193  and  _195
REMARK   79  A    between atoms: _195  and  _196
REMARK   80  A    between atoms: _195  and  _198
REMARK   81  A    between atoms: _198  and  _199
REMARK   82  A    between atoms: _204  and  _205
REMARK   83  A    between atoms: _207  and  _209
REMARK   84  A    between atoms: _209  and  _210
REMARK   85  A    between atoms: _209  and  _212
REMARK   86  A    between atoms: _212  and  _213
REMARK   87  A    between atoms: _218  and  _219
REMARK   88  A    between atoms: _221  and  _223
REMARK   89  A    between atoms: _223  and  _224
REMARK   90  A    between atoms: _223  and  _226
REMARK   91  A    between atoms: _226  and  _227
REMARK   92  A    between atoms: _230  and  _232
REMARK   93  A    between atoms: _232  and  _233
REMARK   94  A    between atoms: _232  and  _235
REMARK   95  A    between atoms: _235  and  _236
REMARK   96  A    between atoms: _236  and  _237
REMARK   97  A    between atoms: _237  and  _238
REMARK   98  A    between atoms: _238  and  _239
REMARK   99  A    between atoms: _243  and  _245
REMARK  100  A    between atoms: _245  and  _246
REMARK  101  A    between atoms: _248  and  _250
REMARK  102  A    between atoms: _250  and  _251
REMARK  103  A    between atoms: _254  and  _255
REMARK  104  A    between atoms: _260  and  _262
REMARK  105  A    between atoms: _262  and  _263
REMARK  106  A    between atoms: _265  and  _267
REMARK  107  A    between atoms: _267  and  _268
REMARK  108  A    between atoms: _267  and  _270
REMARK  109  A    between atoms: _270  and  _271
REMARK  110  A    between atoms: _276  and  _278
REMARK  111  A    between atoms: _278  and  _279
REMARK  112  A    between atoms: _278  and  _281
REMARK  113  A    between atoms: _281  and  _282
REMARK  114  A    between atoms: _282  and  _283
REMARK  115  A    between atoms: _286  and  _288
REMARK  116  A    between atoms: _288  and  _289
REMARK  117  A    between atoms: _288  and  _291
REMARK  118  A    between atoms: _291  and  _292
REMARK  119  A    between atoms: _292  and  _293
REMARK  120  A    between atoms: _297  and  _298
REMARK  121  A    between atoms: _303  and  _305
REMARK  122  A    between atoms: _305  and  _306
REMARK  123  A    between atoms: _305  and  _308
REMARK  124  A    between atoms: _311  and  _313
REMARK  125  A    between atoms: _313  and  _314
REMARK  126  A    between atoms: _313  and  _316
REMARK  127  A    between atoms: _316  and  _317
REMARK  128  A    between atoms: _317  and  _318
REMARK  129  A    between atoms: _320  and  _322
REMARK  130  A    between atoms: _322  and  _323
REMARK  131  A    between atoms: _322  and  _325
REMARK  132  A    between atoms: _325  and  _326
REMARK  133  A    between atoms: _328  and  _330
REMARK  134  A    between atoms: _330  and  _331
REMARK  135  A    between atoms: _333  and  _335
REMARK  136  A    between atoms: _335  and  _336
REMARK  137  A    between atoms: _335  and  _338
REMARK  138  A    between atoms: _338  and  _339
REMARK  139  A    between atoms: _339  and  _340
REMARK  140  A    between atoms: _340  and  _341
REMARK  141  A    between atoms: _341  and  _342
REMARK  142  A    between atoms: _346  and  _348
REMARK  143  A    between atoms: _348  and  _349
REMARK  144  A    between atoms: _348  and  _351
REMARK  145  A    between atoms: _351  and  _352
REMARK  146  A    between atoms: _355  and  _357
REMARK  147  A    between atoms: _357  and  _358
REMARK  148  A    between atoms: _357  and  _360
REMARK  149  A    between atoms: _363  and  _365
REMARK  150  A    between atoms: _365  and  _366
REMARK  151  A    between atoms: _365  and  _368
REMARK  152  A    between atoms: _368  and  _369
REMARK  153  A    between atoms: _375  and  _377
REMARK  154  A    between atoms: _377  and  _378
REMARK  155  A    between atoms: _377  and  _380
REMARK  156  A    between atoms: _380  and  _381
REMARK  157  A    between atoms: _386  and  _387
REMARK  158  A    between atoms: _389  and  _391
REMARK  159  A    between atoms: _391  and  _392
REMARK  160  A    between atoms: _391  and  _394
REMARK  161  A    between atoms: _394  and  _395
REMARK  162  A    between atoms: _398  and  _400
REMARK  163  A    between atoms: _400  and  _401
REMARK  164  A    between atoms: _400  and  _403
REMARK  165  A    between atoms: _403  and  _404
REMARK  166  A    between atoms: _407  and  _409
REMARK  167  A    between atoms: _409  and  _410
REMARK  168  A    between atoms: _409  and  _412
REMARK  169  A    between atoms: _414  and  _416
REMARK  170  A    between atoms: _416  and  _417
REMARK  171  A    between atoms: _416  and  _419
REMARK  172  A    between atoms: _419  and  _420
REMARK  173  A    between atoms: _423  and  _425
REMARK  174  A    between atoms: _425  and  _426
REMARK  175  A    between atoms: _425  and  _428
REMARK  176  A    between atoms: _428  and  _429
REMARK  177  A    between atoms: _432  and  _434
REMARK  178  A    between atoms: _434  and  _435
REMARK  179  A    between atoms: _437  and  _439
REMARK  180  A    between atoms: _439  and  _440
REMARK  181  A    between atoms: _439  and  _442
REMARK  182  A    between atoms: _442  and  _443
REMARK  183  A    between atoms: _443  and  _444
REMARK  184  A    between atoms: _447  and  _449
REMARK  185  A    between atoms: _449  and  _450
REMARK  186  A    between atoms: _449  and  _452
REMARK  187  A    between atoms: _452  and  _453
REMARK  188  A    between atoms: _455  and  _457
REMARK  189  A    between atoms: _457  and  _458
REMARK  190  A    between atoms: _457  and  _460
REMARK  191  A    between atoms: _460  and  _461
REMARK  192  A    between atoms: _461  and  _462
REMARK  193  A    between atoms: _462  and  _463
REMARK  194  A    between atoms: _472  and  _474
REMARK  195  A    between atoms: _474  and  _475
REMARK  196  A    between atoms: _474  and  _477
REMARK  197  A    between atoms: _477  and  _478
REMARK  198  A    between atoms: _481  and  _483
REMARK  199  A    between atoms: _483  and  _484
REMARK  200  A    between atoms: _483  and  _486
REMARK  201  A    between atoms: _486  and  _487
REMARK  202  A    between atoms: _490  and  _492
REMARK  203  A    between atoms: _492  and  _493
REMARK  204  A    between atoms: _492  and  _495
REMARK  205  A    between atoms: _495  and  _496
REMARK  206  A    between atoms: _496  and  _497
REMARK  207  A    between atoms: _497  and  _498
REMARK  208  A    between atoms: _507  and  _509
REMARK  209  A    between atoms: _509  and  _510
REMARK  210  A    between atoms: _509  and  _512
REMARK  211  A    between atoms: _515  and  _517
REMARK  212  A    between atoms: _517  and  _518
REMARK  213  A    between atoms: _517  and  _520
REMARK  214  A    between atoms: _520  and  _521
REMARK  215  A    between atoms: _524  and  _526
REMARK  216  A    between atoms: _526  and  _527
REMARK  217  A    between atoms: _526  and  _529
REMARK  218  A    between atoms: _529  and  _530
REMARK  219  A    between atoms: _530  and  _531
REMARK  220  A    between atoms: _531  and  _532
REMARK  221  A    between atoms: _532  and  _533
REMARK  222  A    between atoms: _537  and  _539
REMARK  223  A    between atoms: _539  and  _540
REMARK  224  A    between atoms: _539  and  _542
REMARK  225  A    between atoms: _542  and  _543
REMARK  226  A    between atoms: _543  and  _544
REMARK  227  A    between atoms: _546  and  _548
REMARK  228  A    between atoms: _548  and  _549
REMARK  229  A    between atoms: _548  and  _551
REMARK  230  A    between atoms: _554  and  _556
REMARK  231  A    between atoms: _556  and  _557
REMARK  232  A    between atoms: _556  and  _559
REMARK  233  A    between atoms: _559  and  _560
REMARK  234  A    between atoms: _570  and  _572
REMARK  235  A    between atoms: _572  and  _573
REMARK  236  A    between atoms: _572  and  _575
REMARK  237  A    between atoms: _575  and  _576
REMARK  238  A    between atoms: _576  and  _577
REMARK  239  A    between atoms: _577  and  _578
REMARK  240  A    between atoms: _578  and  _579
REMARK  241  A    between atoms: _583  and  _585
REMARK  242  A    between atoms: _585  and  _586
REMARK  243  A    between atoms: _585  and  _588
REMARK  244  A    between atoms: _588  and  _589
REMARK  245  A    between atoms: _592  and  _594
REMARK  246  A    between atoms: _594  and  _595
REMARK  247  A    between atoms: _594  and  _597
REMARK  248  A    between atoms: _597  and  _598
REMARK  249  A    between atoms: _603  and  _604
REMARK                            x       y       z     vdW  Elec       q    Type
REMARK                         _______ _______ _______ _____ _____    ______ ____
ROOT
ATOM      1  CA  ARG A   5      -1.714   1.097  30.769  0.00  0.00    +0.149 C 
ENDROOT
BRANCH   1   3
ATOM      2  C   ILE A   4      -3.454  -0.523  30.066  0.00  0.00    +0.241 C 
ATOM      3  N   ARG A   5      -3.057   0.489  30.852  0.00  0.00    -0.297 N 
ATOM      4  H   ARG A   5      -3.727   0.863  31.554  0.00  0.00    +0.150 HD
ATOM      5  O   ILE A   4      -2.769  -0.977  29.146  0.00  0.00    -0.273 OA
BRANCH   2   6
ATOM      6  CA  ILE A   4      -4.826  -1.161  30.351  0.00  0.00    +0.149 C 
BRANCH   6   9
ATOM      7  C   THR A   3      -4.242  -2.055  32.557  0.00  0.00    +0.243 C 
ATOM      8  O   THR A   3      -3.289  -2.713  32.089  0.00  0.00    -0.273 OA
ATOM      9  N   ILE A   4      -5.046  -1.300  31.810  0.00  0.00    -0.297 N 
ATOM     10  H   ILE A   4      -5.841  -0.800  32.258  0.00  0.00    +0.150 HD
BRANCH   7  11
ATOM     11  CA  THR A   3      -4.529  -2.079  34.056  0.00  0.00    +0.176 C 
BRANCH  11  13
ATOM     12  C   ARG A   2      -3.778   0.183  34.608  0.00  0.00    +0.241 C 
ATOM     13  N   THR A   3      -4.751  -0.724  34.572  0.00  0.00    -0.295 N 
ATOM     14  H   THR A   3      -5.696  -0.465  34.920  0.00  0.00    +0.150 HD
ATOM     15  O   ARG A   2      -2.639  -0.036  34.238  0.00  0.00    -0.273 OA
BRANCH  12  16
ATOM     16  CA  ARG A   2      -4.154   1.537  35.196  0.00  0.00    +0.149 C 
BRANCH  16  18
ATOM     17  C   SER A   1      -5.758   2.200  33.463  0.00  0.00    +0.241 C 
ATOM     18  N   ARG A   2      -5.479   1.996  34.749  0.00  0.00    -0.297 N 
ATOM     19  H   ARG A   2      -6.220   2.166  35.459  0.00  0.00    +0.150 HD
ATOM     20  O   SER A   1      -4.902   2.087  32.551  0.00  0.00    -0.274 OA
BRANCH  17  21
ATOM     21  CA  SER A   1      -7.198   2.638  33.151  0.00  0.00    +0.174 C 
BRANCH  21  22
ATOM     22  N   SER A   1      -8.174   1.797  33.815  0.00  0.00    -0.236 NA
ATOM     23  H   SER A   1      -8.847   2.228  34.480  0.00  0.00    +0.142 HD
ENDBRANCH  21  22
BRANCH  21  24
ATOM     24  CB  SER A   1      -7.409   4.087  33.577  0.00  0.00    +0.163 C 
BRANCH  24  25
ATOM     25  OG  SER A   1      -6.453   4.905  32.923  0.00  0.00    -0.380 OA
ATOM     26  H   SER A   1      -6.567   4.825  31.943  0.00  0.00    +0.211 HD
ENDBRANCH  24  25
ENDBRANCH  21  24
ENDBRANCH  17  21
ENDBRANCH  16  18
BRANCH  16  27
ATOM     27  CB  ARG A   2      -4.088   1.465  36.695  0.00  0.00    +0.033 C 
BRANCH  27  28
ATOM     28  CG  ARG A   2      -4.148   2.850  37.333  0.00  0.00    +0.045 C 
BRANCH  28  29
ATOM     29  CD  ARG A   2      -4.330   2.803  38.841  0.00  0.00    +0.174 C 
BRANCH  29  30
ATOM     30  NE  ARG A   2      -4.491   4.186  39.336  0.00  0.00    -0.265 N 
ATOM     31  CZ  ARG A   2      -4.648   4.516  40.617  0.00  0.00    +0.342 C 
ATOM     32  NH2 ARG A   2      -4.665   3.574  41.557  0.00  0.00    -0.292 N 
ATOM     33 HH21 ARG A   2      -4.788   3.838  42.555  0.00  0.00    +0.255 HD
ATOM     34 HH22 ARG A   2      -4.555   2.574  41.293  0.00  0.00    +0.255 HD
ATOM     35  NH1 ARG A   2      -4.791   5.809  40.958  0.00  0.00    -0.292 N 
ATOM     36 HH11 ARG A   2      -4.914   6.073  41.956  0.00  0.00    +0.255 HD
ATOM     37 HH12 ARG A   2      -4.779   6.545  40.223  0.00  0.00    +0.255 HD
ATOM     38  HE  ARG A   2      -4.481   4.955  38.636  0.00  0.00    +0.259 HD
ENDBRANCH  29  30
ENDBRANCH  28  29
ENDBRANCH  27  28
ENDBRANCH  16  27
ENDBRANCH  12  16
ENDBRANCH  11  13
BRANCH  11  39
ATOM     39  CB  THR A   3      -5.746  -3.021  34.368  0.00  0.00    +0.137 C 
ATOM     40  CG2 THR A   3      -5.452  -4.439  33.884  0.00  0.00    +0.034 C 
BRANCH  39  41
ATOM     41  OG1 THR A   3      -5.986  -3.051  35.799  0.00  0.00    -0.382 OA
ATOM     42  HG1 THR A   3      -6.188  -2.136  36.118  0.00  0.00    +0.210 HD
ENDBRANCH  39  41
ENDBRANCH  11  39
ENDBRANCH   7  11
ENDBRANCH   6   9
BRANCH   6  43
ATOM     43  CB  ILE A   4      -5.986  -0.421  29.656  0.00  0.00    +0.027 C 
ATOM     44  CG2 ILE A   4      -5.658  -0.142  28.169  0.00  0.00    +0.002 C 
BRANCH  43  45
ATOM     45  CG1 ILE A   4      -7.264  -1.251  29.817  0.00  0.00    +0.002 C 
ATOM     46  CD1 ILE A   4      -8.562  -0.566  29.352  0.00  0.00    +0.000 C 
ENDBRANCH  43  45
ENDBRANCH   6  43
ENDBRANCH   2   6
ENDBRANCH   1   3
BRANCH   1  47
ATOM     47  C   ARG A   5      -0.635   0.029  30.917  0.00  0.00    +0.241 C 
ATOM     48  N   VAL A   6      -0.765  -0.818  31.953  0.00  0.00    -0.297 N 
ATOM     49  H   VAL A   6      -1.555  -0.700  32.620  0.00  0.00    +0.150 HD
ATOM     50  O   ARG A   5       0.310  -0.035  30.107  0.00  0.00    -0.273 OA
BRANCH  48  51
ATOM     51  CA  VAL A   6       0.185  -1.894  32.149  0.00  0.00    +0.149 C 
BRANCH  51  52
ATOM     52  C   VAL A   6       0.242  -2.823  30.922  0.00  0.00    +0.241 C 
ATOM     53  N   LEU A   7      -0.924  -3.286  30.465  0.00  0.00    -0.297 N 
ATOM     54  H   LEU A   7      -1.806  -2.957  30.908  0.00  0.00    +0.150 HD
ATOM     55  O   VAL A   6       1.343  -3.106  30.407  0.00  0.00    -0.273 OA
BRANCH  53  56
ATOM     56  CA  LEU A   7      -1.000  -4.256  29.345  0.00  0.00    +0.149 C 
BRANCH  56  57
ATOM     57  C   LEU A   7      -0.316  -3.673  28.096  0.00  0.00    +0.241 C 
ATOM     58  N   LYS A   8      -0.629  -2.414  27.794  0.00  0.00    -0.297 N 
ATOM     59  H   LYS A   8      -1.341  -1.911  28.362  0.00  0.00    +0.150 HD
ATOM     60  O   LEU A   7       0.533  -4.333  27.469  0.00  0.00    -0.273 OA
BRANCH  58  61
ATOM     61  CA  LYS A   8       0.025  -1.721  26.659  0.00  0.00    +0.149 C 
BRANCH  61  62
ATOM     62  C   LYS A   8       1.534  -1.542  26.834  0.00  0.00    +0.241 C 
ATOM     63  N   MET A   9       1.975  -1.196  28.044  0.00  0.00    -0.297 N 
ATOM     64  H   MET A   9       1.276  -1.041  28.798  0.00  0.00    +0.150 HD
ATOM     65  O   LYS A   8       2.282  -1.730  25.876  0.00  0.00    -0.273 OA
BRANCH  63  66
ATOM     66  CA  MET A   9       3.384  -1.024  28.364  0.00  0.00    +0.149 C 
BRANCH  66  67
ATOM     67  C   MET A   9       4.172  -2.332  28.196  0.00  0.00    +0.241 C 
ATOM     68  N   VAL A  10       3.613  -3.452  28.646  0.00  0.00    -0.298 N 
ATOM     69  H   VAL A  10       2.624  -3.461  28.966  0.00  0.00    +0.150 HD
ATOM     70  O   MET A   9       5.279  -2.322  27.654  0.00  0.00    -0.273 OA
BRANCH  68  71
ATOM     71  CA  VAL A  10       4.421  -4.671  28.680  0.00  0.00    +0.137 C 
BRANCH  71  72
ATOM     72  CB  VAL A  10       3.910  -5.741  29.698  0.00  0.00    +0.026 C 
ATOM     73  CG2 VAL A  10       3.961  -5.196  31.109  0.00  0.00    +0.002 C 
ATOM     74  CG1 VAL A  10       2.510  -6.271  29.312  0.00  0.00    +0.002 C 
ENDBRANCH  71  72
BRANCH  71  75
ATOM     75  C   VAL A  10       4.589  -5.328  27.310  0.00  0.00    +0.227 C 
ATOM     76  O   VAL A  10       5.590  -6.006  27.079  0.00  0.00    -0.286 OA
ENDBRANCH  71  75
ENDBRANCH  68  71
ENDBRANCH  66  67
BRANCH  66  77
ATOM     77  CB  MET A   9       3.551  -0.403  29.747  0.00  0.00    +0.041 C 
BRANCH  77  78
ATOM     78  CG  MET A   9       4.960  -0.204  30.256  0.00  0.00    +0.060 C 
BRANCH  78  79
ATOM     79  SD  MET A   9       5.709  -1.701  30.945  0.00  0.00    -0.139 S 
ATOM     80  CE  MET A   9       4.608  -1.948  32.382  0.00  0.00    +0.069 C 
ENDBRANCH  78  79
ENDBRANCH  77  78
ENDBRANCH  66  77
ENDBRANCH  63  66
ENDBRANCH  61  62
BRANCH  61  81
ATOM     81  CB  LYS A   8      -0.644  -0.367  26.386  0.00  0.00    +0.029 C 
BRANCH  81  82
ATOM     82  CG  LYS A   8      -2.122  -0.477  26.021  0.00  0.00    +0.000 C 
BRANCH  82  83
ATOM     83  CD  LYS A   8      -2.695   0.901  25.721  0.00  0.00    -0.024 C 
BRANCH  83  84
ATOM     84  CE  LYS A   8      -3.117   1.059  24.272  0.00  0.00    -0.086 C 
BRANCH  84  85
ATOM     85  NZ  LYS A   8      -1.978   0.987  23.325  0.00  0.00    +0.380 N 
ATOM     86  HZ1 LYS A   8      -1.300   1.745  23.542  0.00  0.00    -0.089 HD
ATOM     87  HZ2 LYS A   8      -1.509   0.064  23.419  0.00  0.00    -0.089 HD
ATOM     88  HZ3 LYS A   8      -2.329   1.101  22.353  0.00  0.00    -0.089 HD
ENDBRANCH  84  85
ENDBRANCH  83  84
ENDBRANCH  82  83
ENDBRANCH  81  82
ENDBRANCH  61  81
ENDBRANCH  58  61
ENDBRANCH  56  57
BRANCH  56  89
ATOM     89  CB  LEU A   7      -2.449  -4.665  29.079  0.00  0.00    +0.029 C 
BRANCH  89  90
ATOM     90  CG  LEU A   7      -3.078  -5.476  30.238  0.00  0.00    +0.002 C 
ATOM     91  CD2 LEU A   7      -2.299  -6.783  30.498  0.00  0.00    +0.000 C 
ATOM     92  CD1 LEU A   7      -4.525  -5.772  29.889  0.00  0.00    +0.000 C 
ENDBRANCH  89  90
ENDBRANCH  56  89
ENDBRANCH  53  56
ENDBRANCH  51  52
BRANCH  51  93
ATOM     93  CB  VAL A   6      -0.081  -2.697  33.445  0.00  0.00    +0.027 C 
ATOM     94  CG2 VAL A   6       0.337  -1.868  34.706  0.00  0.00    +0.002 C 
ATOM     95  CG1 VAL A   6       0.653  -4.044  33.357  0.00  0.00    +0.002 C 
ENDBRANCH  51  93
ENDBRANCH  48  51
ENDBRANCH   1  47
BRANCH   1  96
ATOM     96  CB  ARG A   5      -1.502   2.194  31.834  0.00  0.00    +0.033 C 
BRANCH  96  97
ATOM     97  CG  ARG A   5      -1.582   3.655  31.358  0.00  0.00    +0.045 C 
BRANCH  97  98
ATOM     98  CD  ARG A   5      -1.772   4.599  32.573  0.00  0.00    +0.174 C 
BRANCH  98  99
ATOM     99  NE  ARG A   5      -0.552   5.138  33.204  0.00  0.00    -0.265 N 
ATOM    100  CZ  ARG A   5      -0.395   5.354  34.524  0.00  0.00    +0.342 C 
ATOM    101  NH2 ARG A   5      -1.358   5.003  35.392  0.00  0.00    -0.292 N 
ATOM    102 HH21 ARG A   5      -1.228   5.174  36.410  0.00  0.00    +0.255 HD
ATOM    103 HH22 ARG A   5      -2.233   4.561  35.046  0.00  0.00    +0.255 HD
ATOM    104  NH1 ARG A   5       0.745   5.899  34.994  0.00  0.00    -0.292 N 
ATOM    105 HH11 ARG A   5       0.861   6.063  36.014  0.00  0.00    +0.255 HD
ATOM    106 HH12 ARG A   5       1.509   6.155  34.336  0.00  0.00    +0.255 HD
ATOM    107  HE  ARG A   5       0.248   5.369  32.581  0.00  0.00    +0.259 HD
ENDBRANCH  98  99
ENDBRANCH  97  98
ENDBRANCH  96  97
ENDBRANCH   1  96
TORSDOF 46
REMARK  Name = ../refined-set-2016/3p8z/3p8z_pocket.pdb
REMARK  249 active torsions:
REMARK  status: ('A' for Active; 'I' for Inactive)
REMARK    1  A    between atoms: _1  and  _3
REMARK    2  A    between atoms: _3  and  _4
REMARK    3  A    between atoms: _7  and  _9
REMARK    4  A    between atoms: _9  and  _10
REMARK    5  A    between atoms: _9  and  _12
REMARK    6  A    between atoms: _15  and  _17
REMARK    7  A    between atoms: _17  and  _18
REMARK    8  A    between atoms: _17  and  _20
REMARK    9  A    between atoms: _20  and  _21
REMARK   10  A    between atoms: _23  and  _25
REMARK   11  A    between atoms: _25  and  _26
REMARK   12  A    between atoms: _25  and  _28
REMARK   13  A    between atoms: _28  and  _29
REMARK   14  A    between atoms: _29  and  _30
REMARK   15  A    between atoms: _30  and  _31
REMARK   16  A    between atoms: _40  and  _42
REMARK   17  A    between atoms: _42  and  _43
REMARK   18  A    between atoms: _45  and  _47
REMARK   19  A    between atoms: _47  and  _48
REMARK   20  A    between atoms: _47  and  _50
REMARK   21  A    between atoms: _50  and  _51
REMARK   22  A    between atoms: _53  and  _55
REMARK   23  A    between atoms: _55  and  _56
REMARK   24  A    between atoms: _59  and  _61
REMARK   25  A    between atoms: _61  and  _62
REMARK   26  A    between atoms: _61  and  _64
REMARK   27  A    between atoms: _64  and  _65
REMARK   28  A    between atoms: _65  and  _66
REMARK   29  A    between atoms: _66  and  _67
REMARK   30  A    between atoms: _67  and  _68
REMARK   31  A    between atoms: _72  and  _74
REMARK   32  A    between atoms: _74  and  _75
REMARK   33  A    between atoms: _74  and  _77
REMARK   34  A    between atoms: _77  and  _78
REMARK   35  A    between atoms: _81  and  _83
REMARK   36  A    between atoms: _83  and  _84
REMARK   37  A    between atoms: _83  and  _86
REMARK   38  A    between atoms: _86  and  _87
REMARK   39  A    between atoms: _87  and  _88
REMARK   40  A    between atoms: _93  and  _95
REMARK   41  A    between atoms: _95  and  _96
REMARK   42  A    between atoms: _95  and  _98
REMARK   43  A    between atoms: _98  and  _99
REMARK   44  A    between atoms: _102  and  _104
REMARK   45  A    between atoms: _104  and  _105
REMARK   46  A    between atoms: _104  and  _107
REMARK   47  A    between atoms: _107  and  _108
REMARK   48  A    between atoms: _111  and  _113
REMARK   49  A    between atoms: _113  and  _114
REMARK   50  A    between atoms: _116  and  _118
REMARK   51  A    between atoms: _118  and  _119
REMARK   52  A    between atoms: _118  and  _121
REMARK   53  A    between atoms: _123  and  _125
REMARK   54  A    between atoms: _125  and  _126
REMARK   55  A    between atoms: _128  and  _130
REMARK   56  A    between atoms: _130  and  _131
REMARK   57  A    between atoms: _130  and  _133
REMARK   58  A    between atoms: _133  and  _134
REMARK   59  A    between atoms: _134  and  _135
REMARK   60  A    between atoms: _135  and  _136
REMARK   61  A    between atoms: _145  and  _147
REMARK   62  A    between atoms: _147  and  _148
REMARK   63  A    between atoms: _150  and  _152
REMARK   64  A    between atoms: _152  and  _153
REMARK   65  A    between atoms: _155  and  _157
REMARK   66  A    between atoms: _157  and  _158
REMARK   67  A    between atoms: _157  and  _160
REMARK   68  A    between atoms: _160  and  _161
REMARK   69  A    between atoms: _171  and  _173
REMARK   70  A    between atoms: _173  and  _174
REMARK   71  A    between atoms: _173  and  _176
REMARK   72  A    between atoms: _176  and  _177
REMARK   73  A    between atoms: _179  and  _181
REMARK   74  A    between atoms: _181  and  _182
REMARK   75  A    between atoms: _181  and  _184
REMARK   76  A    between atoms: _184  and  _185
REMARK   77  A    between atoms: _190  and  _191
REMARK   78  A    between atoms: _193  and  _195
REMARK   79  A    between atoms: _195  and  _196
REMARK   80  A    between atoms: _195  and  _198
REMARK   81  A    between atoms: _198  and  _199
REMARK   82  A    between atoms: _204  and  _205
REMARK   83  A    between atoms: _207  and  _209
REMARK   84  A    between atoms: _209  and  _210
REMARK   85  A    between atoms: _209  and  _212
REMARK   86  A    between atoms: _212  and  _213
REMARK   87  A    between atoms: _218  and  _219
REMARK   88  A    between atoms: _221  and  _223
REMARK   89  A    between atoms: _223  and  _224
REMARK   90  A    between atoms: _223  and  _226
REMARK   91  A    between atoms: _226  and  _227
REMARK   92  A    between atoms: _230  and  _232
REMARK   93  A    between atoms: _232  and  _233
REMARK   94  A    between atoms: _232  and  _235
REMARK   95  A    between atoms: _235  and  _236
REMARK   96  A    between atoms: _236  and  _237
REMARK   97  A    between atoms: _237  and  _238
REMARK   98  A    between atoms: _238  and  _239
REMARK   99  A    between atoms: _243  and  _245
REMARK  100  A    between atoms: _245  and  _246
REMARK  101  A    between atoms: _248  and  _250
REMARK  102  A    between atoms: _250  and  _251
REMARK  103  A    between atoms: _254  and  _255
REMARK  104  A    between atoms: _260  and  _262
REMARK  105  A    between atoms: _262  and  _263
REMARK  106  A    between atoms: _265  and  _267
REMARK  107  A    between atoms: _267  and  _268
REMARK  108  A    between atoms: _267  and  _270
REMARK  109  A    between atoms: _270  and  _271
REMARK  110  A    between atoms: _276  and  _278
REMARK  111  A    between atoms: _278  and  _279
REMARK  112  A    between atoms: _278  and  _281
REMARK  113  A    between atoms: _281  and  _282
REMARK  114  A    between atoms: _282  and  _283
REMARK  115  A    between atoms: _286  and  _288
REMARK  116  A    between atoms: _288  and  _289
REMARK  117  A    between atoms: _288  and  _291
REMARK  118  A    between atoms: _291  and  _292
REMARK  119  A    between atoms: _292  and  _293
REMARK  120  A    between atoms: _297  and  _298
REMARK  121  A    between atoms: _303  and  _305
REMARK  122  A    between atoms: _305  and  _306
REMARK  123  A    between atoms: _305  and  _308
REMARK  124  A    between atoms: _311  and  _313
REMARK  125  A    between atoms: _313  and  _314
REMARK  126  A    between atoms: _313  and  _316
REMARK  127  A    between atoms: _316  and  _317
REMARK  128  A    between atoms: _317  and  _318
REMARK  129  A    between atoms: _320  and  _322
REMARK  130  A    between atoms: _322  and  _323
REMARK  131  A    between atoms: _322  and  _325
REMARK  132  A    between atoms: _325  and  _326
REMARK  133  A    between atoms: _328  and  _330
REMARK  134  A    between atoms: _330  and  _331
REMARK  135  A    between atoms: _333  and  _335
REMARK  136  A    between atoms: _335  and  _336
REMARK  137  A    between atoms: _335  and  _338
REMARK  138  A    between atoms: _338  and  _339
REMARK  139  A    between atoms: _339  and  _340
REMARK  140  A    between atoms: _340  and  _341
REMARK  141  A    between atoms: _341  and  _342
REMARK  142  A    between atoms: _346  and  _348
REMARK  143  A    between atoms: _348  and  _349
REMARK  144  A    between atoms: _348  and  _351
REMARK  145  A    between atoms: _351  and  _352
REMARK  146  A    between atoms: _355  and  _357
REMARK  147  A    between atoms: _357  and  _358
REMARK  148  A    between atoms: _357  and  _360
REMARK  149  A    between atoms: _363  and  _365
REMARK  150  A    between atoms: _365  and  _366
REMARK  151  A    between atoms: _365  and  _368
REMARK  152  A    between atoms: _368  and  _369
REMARK  153  A    between atoms: _375  and  _377
REMARK  154  A    between atoms: _377  and  _378
REMARK  155  A    between atoms: _377  and  _380
REMARK  156  A    between atoms: _380  and  _381
REMARK  157  A    between atoms: _386  and  _387
REMARK  158  A    between atoms: _389  and  _391
REMARK  159  A    between atoms: _391  and  _392
REMARK  160  A    between atoms: _391  and  _394
REMARK  161  A    between atoms: _394  and  _395
REMARK  162  A    between atoms: _398  and  _400
REMARK  163  A    between atoms: _400  and  _401
REMARK  164  A    between atoms: _400  and  _403
REMARK  165  A    between atoms: _403  and  _404
REMARK  166  A    between atoms: _407  and  _409
REMARK  167  A    between atoms: _409  and  _410
REMARK  168  A    between atoms: _409  and  _412
REMARK  169  A    between atoms: _414  and  _416
REMARK  170  A    between atoms: _416  and  _417
REMARK  171  A    between atoms: _416  and  _419
REMARK  172  A    between atoms: _419  and  _420
REMARK  173  A    between atoms: _423  and  _425
REMARK  174  A    between atoms: _425  and  _426
REMARK  175  A    between atoms: _425  and  _428
REMARK  176  A    between atoms: _428  and  _429
REMARK  177  A    between atoms: _432  and  _434
REMARK  178  A    between atoms: _434  and  _435
REMARK  179  A    between atoms: _437  and  _439
REMARK  180  A    between atoms: _439  and  _440
REMARK  181  A    between atoms: _439  and  _442
REMARK  182  A    between atoms: _442  and  _443
REMARK  183  A    between atoms: _443  and  _444
REMARK  184  A    between atoms: _447  and  _449
REMARK  185  A    between atoms: _449  and  _450
REMARK  186  A    between atoms: _449  and  _452
REMARK  187  A    between atoms: _452  and  _453
REMARK  188  A    between atoms: _455  and  _457
REMARK  189  A    between atoms: _457  and  _458
REMARK  190  A    between atoms: _457  and  _460
REMARK  191  A    between atoms: _460  and  _461
REMARK  192  A    between atoms: _461  and  _462
REMARK  193  A    between atoms: _462  and  _463
REMARK  194  A    between atoms: _472  and  _474
REMARK  195  A    between atoms: _474  and  _475
REMARK  196  A    between atoms: _474  and  _477
REMARK  197  A    between atoms: _477  and  _478
REMARK  198  A    between atoms: _481  and  _483
REMARK  199  A    between atoms: _483  and  _484
REMARK  200  A    between atoms: _483  and  _486
REMARK  201  A    between atoms: _486  and  _487
REMARK  202  A    between atoms: _490  and  _492
REMARK  203  A    between atoms: _492  and  _493
REMARK  204  A    between atoms: _492  and  _495
REMARK  205  A    between atoms: _495  and  _496
REMARK  206  A    between atoms: _496  and  _497
REMARK  207  A    between atoms: _497  and  _498
REMARK  208  A    between atoms: _507  and  _509
REMARK  209  A    between atoms: _509  and  _510
REMARK  210  A    between atoms: _509  and  _512
REMARK  211  A    between atoms: _515  and  _517
REMARK  212  A    between atoms: _517  and  _518
REMARK  213  A    between atoms: _517  and  _520
REMARK  214  A    between atoms: _520  and  _521
REMARK  215  A    between atoms: _524  and  _526
REMARK  216  A    between atoms: _526  and  _527
REMARK  217  A    between atoms: _526  and  _529
REMARK  218  A    between atoms: _529  and  _530
REMARK  219  A    between atoms: _530  and  _531
REMARK  220  A    between atoms: _531  and  _532
REMARK  221  A    between atoms: _532  and  _533
REMARK  222  A    between atoms: _537  and  _539
REMARK  223  A    between atoms: _539  and  _540
REMARK  224  A    between atoms: _539  and  _542
REMARK  225  A    between atoms: _542  and  _543
REMARK  226  A    between atoms: _543  and  _544
REMARK  227  A    between atoms: _546  and  _548
REMARK  228  A    between atoms: _548  and  _549
REMARK  229  A    between atoms: _548  and  _551
REMARK  230  A    between atoms: _554  and  _556
REMARK  231  A    between atoms: _556  and  _557
REMARK  232  A    between atoms: _556  and  _559
REMARK  233  A    between atoms: _559  and  _560
REMARK  234  A    between atoms: _570  and  _572
REMARK  235  A    between atoms: _572  and  _573
REMARK  236  A    between atoms: _572  and  _575
REMARK  237  A    between atoms: _575  and  _576
REMARK  238  A    between atoms: _576  and  _577
REMARK  239  A    between atoms: _577  and  _578
REMARK  240  A    between atoms: _578  and  _579
REMARK  241  A    between atoms: _583  and  _585
REMARK  242  A    between atoms: _585  and  _586
REMARK  243  A    between atoms: _585  and  _588
REMARK  244  A    between atoms: _588  and  _589
REMARK  245  A    between atoms: _592  and  _594
REMARK  246  A    between atoms: _594  and  _595
REMARK  247  A    between atoms: _594  and  _597
REMARK  248  A    between atoms: _597  and  _598
REMARK  249  A    between atoms: _603  and  _604
REMARK                            x       y       z     vdW  Elec       q    Type
REMARK                         _______ _______ _______ _____ _____    ______ ____
ROOT
ATOM      1  CG  TRP A   1       9.050  -4.833  27.985  0.00  0.00    -0.002 A 
ATOM      2  CD2 TRP A   1      10.210  -4.381  28.641  0.00  0.00    +0.013 A 
ATOM      3  CE2 TRP A   1      10.005  -3.013  28.974  0.00  0.00    +0.056 A 
ATOM      4  CZ2 TRP A   1      10.975  -2.251  29.608  0.00  0.00    +0.017 A 
ATOM      5  CH2 TRP A   1      12.162  -2.858  29.929  0.00  0.00    +0.001 A 
ATOM      6  CZ3 TRP A   1      12.408  -4.213  29.607  0.00  0.00    +0.000 A 
ATOM      7  NE1 TRP A   1       8.755  -2.672  28.547  0.00  0.00    -0.352 N 
ATOM      8  HE1 TRP A   1       8.313  -1.736  28.645  0.00  0.00    +0.166 HD
ATOM      9  CE3 TRP A   1      11.438  -4.971  28.936  0.00  0.00    +0.001 A 
ATOM     10  CD1 TRP A   1       8.175  -3.781  27.962  0.00  0.00    +0.068 A 
ENDROOT
BRANCH   1  11
ATOM     11  CB  TRP A   1       8.811  -6.235  27.509  0.00  0.00    +0.053 C 
BRANCH  11  12
ATOM     12  CA  TRP A   1       8.873  -6.458  26.023  0.00  0.00    +0.137 C 
BRANCH  12  13
ATOM     13  N   TRP A   1       7.814  -5.727  25.347  0.00  0.00    -0.239 NA
ATOM     14  H   TRP A   1       6.931  -5.512  25.853  0.00  0.00    +0.142 HD
ENDBRANCH  12  13
BRANCH  12  15
ATOM     15  C   TRP A   1       8.739  -7.979  25.804  0.00  0.00    +0.224 C 
ATOM     16  O   TRP A   1       9.659  -8.716  26.134  0.00  0.00    -0.287 OA
ENDBRANCH  12  15
ENDBRANCH  11  12
ENDBRANCH   1  11
TORSDOF 4
REMARK  Name = ../refined-set-2016/3p8z/3p8z_pocket.pdb
REMARK  249 active torsions:
REMARK  status: ('A' for Active; 'I' for Inactive)
REMARK    1  A    between atoms: _1  and  _3
REMARK    2  A    between atoms: _3  and  _4
REMARK    3  A    between atoms: _7  and  _9
REMARK    4  A    between atoms: _9  and  _10
REMARK    5  A    between atoms: _9  and  _12
REMARK    6  A    between atoms: _15  and  _17
REMARK    7  A    between atoms: _17  and  _18
REMARK    8  A    between atoms: _17  and  _20
REMARK    9  A    between atoms: _20  and  _21
REMARK   10  A    between atoms: _23  and  _25
REMARK   11  A    between atoms: _25  and  _26
REMARK   12  A    between atoms: _25  and  _28
REMARK   13  A    between atoms: _28  and  _29
REMARK   14  A    between atoms: _29  and  _30
REMARK   15  A    between atoms: _30  and  _31
REMARK   16  A    between atoms: _40  and  _42
REMARK   17  A    between atoms: _42  and  _43
REMARK   18  A    between atoms: _45  and  _47
REMARK   19  A    between atoms: _47  and  _48
REMARK   20  A    between atoms: _47  and  _50
REMARK   21  A    between atoms: _50  and  _51
REMARK   22  A    between atoms: _53  and  _55
REMARK   23  A    between atoms: _55  and  _56
REMARK   24  A    between atoms: _59  and  _61
REMARK   25  A    between atoms: _61  and  _62
REMARK   26  A    between atoms: _61  and  _64
REMARK   27  A    between atoms: _64  and  _65
REMARK   28  A    between atoms: _65  and  _66
REMARK   29  A    between atoms: _66  and  _67
REMARK   30  A    between atoms: _67  and  _68
REMARK   31  A    between atoms: _72  and  _74
REMARK   32  A    between atoms: _74  and  _75
REMARK   33  A    between atoms: _74  and  _77
REMARK   34  A    between atoms: _77  and  _78
REMARK   35  A    between atoms: _81  and  _83
REMARK   36  A    between atoms: _83  and  _84
REMARK   37  A    between atoms: _83  and  _86
REMARK   38  A    between atoms: _86  and  _87
REMARK   39  A    between atoms: _87  and  _88
REMARK   40  A    between atoms: _93  and  _95
REMARK   41  A    between atoms: _95  and  _96
REMARK   42  A    between atoms: _95  and  _98
REMARK   43  A    between atoms: _98  and  _99
REMARK   44  A    between atoms: _102  and  _104
REMARK   45  A    between atoms: _104  and  _105
REMARK   46  A    between atoms: _104  and  _107
REMARK   47  A    between atoms: _107  and  _108
REMARK   48  A    between atoms: _111  and  _113
REMARK   49  A    between atoms: _113  and  _114
REMARK   50  A    between atoms: _116  and  _118
REMARK   51  A    between atoms: _118  and  _119
REMARK   52  A    between atoms: _118  and  _121
REMARK   53  A    between atoms: _123  and  _125
REMARK   54  A    between atoms: _125  and  _126
REMARK   55  A    between atoms: _128  and  _130
REMARK   56  A    between atoms: _130  and  _131
REMARK   57  A    between atoms: _130  and  _133
REMARK   58  A    between atoms: _133  and  _134
REMARK   59  A    between atoms: _134  and  _135
REMARK   60  A    between atoms: _135  and  _136
REMARK   61  A    between atoms: _145  and  _147
REMARK   62  A    between atoms: _147  and  _148
REMARK   63  A    between atoms: _150  and  _152
REMARK   64  A    between atoms: _152  and  _153
REMARK   65  A    between atoms: _155  and  _157
REMARK   66  A    between atoms: _157  and  _158
REMARK   67  A    between atoms: _157  and  _160
REMARK   68  A    between atoms: _160  and  _161
REMARK   69  A    between atoms: _171  and  _173
REMARK   70  A    between atoms: _173  and  _174
REMARK   71  A    between atoms: _173  and  _176
REMARK   72  A    between atoms: _176  and  _177
REMARK   73  A    between atoms: _179  and  _181
REMARK   74  A    between atoms: _181  and  _182
REMARK   75  A    between atoms: _181  and  _184
REMARK   76  A    between atoms: _184  and  _185
REMARK   77  A    between atoms: _190  and  _191
REMARK   78  A    between atoms: _193  and  _195
REMARK   79  A    between atoms: _195  and  _196
REMARK   80  A    between atoms: _195  and  _198
REMARK   81  A    between atoms: _198  and  _199
REMARK   82  A    between atoms: _204  and  _205
REMARK   83  A    between atoms: _207  and  _209
REMARK   84  A    between atoms: _209  and  _210
REMARK   85  A    between atoms: _209  and  _212
REMARK   86  A    between atoms: _212  and  _213
REMARK   87  A    between atoms: _218  and  _219
REMARK   88  A    between atoms: _221  and  _223
REMARK   89  A    between atoms: _223  and  _224
REMARK   90  A    between atoms: _223  and  _226
REMARK   91  A    between atoms: _226  and  _227
REMARK   92  A    between atoms: _230  and  _232
REMARK   93  A    between atoms: _232  and  _233
REMARK   94  A    between atoms: _232  and  _235
REMARK   95  A    between atoms: _235  and  _236
REMARK   96  A    between atoms: _236  and  _237
REMARK   97  A    between atoms: _237  and  _238
REMARK   98  A    between atoms: _238  and  _239
REMARK   99  A    between atoms: _243  and  _245
REMARK  100  A    between atoms: _245  and  _246
REMARK  101  A    between atoms: _248  and  _250
REMARK  102  A    between atoms: _250  and  _251
REMARK  103  A    between atoms: _254  and  _255
REMARK  104  A    between atoms: _260  and  _262
REMARK  105  A    between atoms: _262  and  _263
REMARK  106  A    between atoms: _265  and  _267
REMARK  107  A    between atoms: _267  and  _268
REMARK  108  A    between atoms: _267  and  _270
REMARK  109  A    between atoms: _270  and  _271
REMARK  110  A    between atoms: _276  and  _278
REMARK  111  A    between atoms: _278  and  _279
REMARK  112  A    between atoms: _278  and  _281
REMARK  113  A    between atoms: _281  and  _282
REMARK  114  A    between atoms: _282  and  _283
REMARK  115  A    between atoms: _286  and  _288
REMARK  116  A    between atoms: _288  and  _289
REMARK  117  A    between atoms: _288  and  _291
REMARK  118  A    between atoms: _291  and  _292
REMARK  119  A    between atoms: _292  and  _293
REMARK  120  A    between atoms: _297  and  _298
REMARK  121  A    between atoms: _303  and  _305
REMARK  122  A    between atoms: _305  and  _306
REMARK  123  A    between atoms: _305  and  _308
REMARK  124  A    between atoms: _311  and  _313
REMARK  125  A    between atoms: _313  and  _314
REMARK  126  A    between atoms: _313  and  _316
REMARK  127  A    between atoms: _316  and  _317
REMARK  128  A    between atoms: _317  and  _318
REMARK  129  A    between atoms: _320  and  _322
REMARK  130  A    between atoms: _322  and  _323
REMARK  131  A    between atoms: _322  and  _325
REMARK  132  A    between atoms: _325  and  _326
REMARK  133  A    between atoms: _328  and  _330
REMARK  134  A    between atoms: _330  and  _331
REMARK  135  A    between atoms: _333  and  _335
REMARK  136  A    between atoms: _335  and  _336
REMARK  137  A    between atoms: _335  and  _338
REMARK  138  A    between atoms: _338  and  _339
REMARK  139  A    between atoms: _339  and  _340
REMARK  140  A    between atoms: _340  and  _341
REMARK  141  A    between atoms: _341  and  _342
REMARK  142  A    between atoms: _346  and  _348
REMARK  143  A    between atoms: _348  and  _349
REMARK  144  A    between atoms: _348  and  _351
REMARK  145  A    between atoms: _351  and  _352
REMARK  146  A    between atoms: _355  and  _357
REMARK  147  A    between atoms: _357  and  _358
REMARK  148  A    between atoms: _357  and  _360
REMARK  149  A    between atoms: _363  and  _365
REMARK  150  A    between atoms: _365  and  _366
REMARK  151  A    between atoms: _365  and  _368
REMARK  152  A    between atoms: _368  and  _369
REMARK  153  A    between atoms: _375  and  _377
REMARK  154  A    between atoms: _377  and  _378
REMARK  155  A    between atoms: _377  and  _380
REMARK  156  A    between atoms: _380  and  _381
REMARK  157  A    between atoms: _386  and  _387
REMARK  158  A    between atoms: _389  and  _391
REMARK  159  A    between atoms: _391  and  _392
REMARK  160  A    between atoms: _391  and  _394
REMARK  161  A    between atoms: _394  and  _395
REMARK  162  A    between atoms: _398  and  _400
REMARK  163  A    between atoms: _400  and  _401
REMARK  164  A    between atoms: _400  and  _403
REMARK  165  A    between atoms: _403  and  _404
REMARK  166  A    between atoms: _407  and  _409
REMARK  167  A    between atoms: _409  and  _410
REMARK  168  A    between atoms: _409  and  _412
REMARK  169  A    between atoms: _414  and  _416
REMARK  170  A    between atoms: _416  and  _417
REMARK  171  A    between atoms: _416  and  _419
REMARK  172  A    between atoms: _419  and  _420
REMARK  173  A    between atoms: _423  and  _425
REMARK  174  A    between atoms: _425  and  _426
REMARK  175  A    between atoms: _425  and  _428
REMARK  176  A    between atoms: _428  and  _429
REMARK  177  A    between atoms: _432  and  _434
REMARK  178  A    between atoms: _434  and  _435
REMARK  179  A    between atoms: _437  and  _439
REMARK  180  A    between atoms: _439  and  _440
REMARK  181  A    between atoms: _439  and  _442
REMARK  182  A    between atoms: _442  and  _443
REMARK  183  A    between atoms: _443  and  _444
REMARK  184  A    between atoms: _447  and  _449
REMARK  185  A    between atoms: _449  and  _450
REMARK  186  A    between atoms: _449  and  _452
REMARK  187  A    between atoms: _452  and  _453
REMARK  188  A    between atoms: _455  and  _457
REMARK  189  A    between atoms: _457  and  _458
REMARK  190  A    between atoms: _457  and  _460
REMARK  191  A    between atoms: _460  and  _461
REMARK  192  A    between atoms: _461  and  _462
REMARK  193  A    between atoms: _462  and  _463
REMARK  194  A    between atoms: _472  and  _474
REMARK  195  A    between atoms: _474  and  _475
REMARK  196  A    between atoms: _474  and  _477
REMARK  197  A    between atoms: _477  and  _478
REMARK  198  A    between atoms: _481  and  _483
REMARK  199  A    between atoms: _483  and  _484
REMARK  200  A    between atoms: _483  and  _486
REMARK  201  A    between atoms: _486  and  _487
REMARK  202  A    between atoms: _490  and  _492
REMARK  203  A    between atoms: _492  and  _493
REMARK  204  A    between atoms: _492  and  _495
REMARK  205  A    between atoms: _495  and  _496
REMARK  206  A    between atoms: _496  and  _497
REMARK  207  A    between atoms: _497  and  _498
REMARK  208  A    between atoms: _507  and  _509
REMARK  209  A    between atoms: _509  and  _510
REMARK  210  A    between atoms: _509  and  _512
REMARK  211  A    between atoms: _515  and  _517
REMARK  212  A    between atoms: _517  and  _518
REMARK  213  A    between atoms: _517  and  _520
REMARK  214  A    between atoms: _520  and  _521
REMARK  215  A    between atoms: _524  and  _526
REMARK  216  A    between atoms: _526  and  _527
REMARK  217  A    between atoms: _526  and  _529
REMARK  218  A    between atoms: _529  and  _530
REMARK  219  A    between atoms: _530  and  _531
REMARK  220  A    between atoms: _531  and  _532
REMARK  221  A    between atoms: _532  and  _533
REMARK  222  A    between atoms: _537  and  _539
REMARK  223  A    between atoms: _539  and  _540
REMARK  224  A    between atoms: _539  and  _542
REMARK  225  A    between atoms: _542  and  _543
REMARK  226  A    between atoms: _543  and  _544
REMARK  227  A    between atoms: _546  and  _548
REMARK  228  A    between atoms: _548  and  _549
REMARK  229  A    between atoms: _548  and  _551
REMARK  230  A    between atoms: _554  and  _556
REMARK  231  A    between atoms: _556  and  _557
REMARK  232  A    between atoms: _556  and  _559
REMARK  233  A    between atoms: _559  and  _560
REMARK  234  A    between atoms: _570  and  _572
REMARK  235  A    between atoms: _572  and  _573
REMARK  236  A    between atoms: _572  and  _575
REMARK  237  A    between atoms: _575  and  _576
REMARK  238  A    between atoms: _576  and  _577
REMARK  239  A    between atoms: _577  and  _578
REMARK  240  A    between atoms: _578  and  _579
REMARK  241  A    between atoms: _583  and  _585
REMARK  242  A    between atoms: _585  and  _586
REMARK  243  A    between atoms: _585  and  _588
REMARK  244  A    between atoms: _588  and  _589
REMARK  245  A    between atoms: _592  and  _594
REMARK  246  A    between atoms: _594  and  _595
REMARK  247  A    between atoms: _594  and  _597
REMARK  248  A    between atoms: _597  and  _598
REMARK  249  A    between atoms: _603  and  _604
REMARK                            x       y       z     vdW  Elec       q    Type
REMARK                         _______ _______ _______ _____ _____    ______ ____
ROOT
ATOM      1  CG  LYS A   1      -0.877  -7.656  39.527  0.00  0.00    -0.000 C 
ENDROOT
BRANCH   1   2
ATOM      2  CB  LYS A   1       0.295  -7.784  38.544  0.00  0.00    +0.025 C 
BRANCH   2   3
ATOM      3  CA  LYS A   1      -0.059  -8.604  37.301  0.00  0.00    +0.133 C 
BRANCH   3   4
ATOM      4  N   LYS A   1       1.129  -8.915  36.510  0.00  0.00    -0.239 NA
ATOM      5  H   LYS A   1       2.033  -8.442  36.715  0.00  0.00    +0.142 HD
ENDBRANCH   3   4
BRANCH   3   6
ATOM      6  C   LYS A   1      -1.130  -7.894  36.461  0.00  0.00    +0.224 C 
ATOM      7  O   LYS A   1      -0.838  -6.919  35.728  0.00  0.00    -0.287 OA
ENDBRANCH   3   6
ENDBRANCH   2   3
ENDBRANCH   1   2
BRANCH   1   8
ATOM      8  CD  LYS A   1      -0.424  -6.975  40.799  0.00  0.00    -0.024 C 
BRANCH   8   9
ATOM      9  CE  LYS A   1      -0.815  -5.546  40.814  0.00  0.00    -0.086 C 
BRANCH   9  10
ATOM     10  NZ  LYS A   1      -0.213  -4.776  41.949  0.00  0.00    +0.380 N 
ATOM     11  HZ1 LYS A   1      -0.520  -5.194  42.851  0.00  0.00    -0.089 HD
ATOM     12  HZ2 LYS A   1      -0.527  -3.786  41.900  0.00  0.00    -0.089 HD
ATOM     13  HZ3 LYS A   1       0.824  -4.816  41.882  0.00  0.00    -0.089 HD
ENDBRANCH   9  10
ENDBRANCH   8   9
ENDBRANCH   1   8
TORSDOF 7
REMARK  Name = ../refined-set-2016/3p8z/3p8z_pocket.pdb
REMARK  249 active torsions:
REMARK  status: ('A' for Active; 'I' for Inactive)
REMARK    1  A    between atoms: _1  and  _3
REMARK    2  A    between atoms: _3  and  _4
REMARK    3  A    between atoms: _7  and  _9
REMARK    4  A    between atoms: _9  and  _10
REMARK    5  A    between atoms: _9  and  _12
REMARK    6  A    between atoms: _15  and  _17
REMARK    7  A    between atoms: _17  and  _18
REMARK    8  A    between atoms: _17  and  _20
REMARK    9  A    between atoms: _20  and  _21
REMARK   10  A    between atoms: _23  and  _25
REMARK   11  A    between atoms: _25  and  _26
REMARK   12  A    between atoms: _25  and  _28
REMARK   13  A    between atoms: _28  and  _29
REMARK   14  A    between atoms: _29  and  _30
REMARK   15  A    between atoms: _30  and  _31
REMARK   16  A    between atoms: _40  and  _42
REMARK   17  A    between atoms: _42  and  _43
REMARK   18  A    between atoms: _45  and  _47
REMARK   19  A    between atoms: _47  and  _48
REMARK   20  A    between atoms: _47  and  _50
REMARK   21  A    between atoms: _50  and  _51
REMARK   22  A    between atoms: _53  and  _55
REMARK   23  A    between atoms: _55  and  _56
REMARK   24  A    between atoms: _59  and  _61
REMARK   25  A    between atoms: _61  and  _62
REMARK   26  A    between atoms: _61  and  _64
REMARK   27  A    between atoms: _64  and  _65
REMARK   28  A    between atoms: _65  and  _66
REMARK   29  A    between atoms: _66  and  _67
REMARK   30  A    between atoms: _67  and  _68
REMARK   31  A    between atoms: _72  and  _74
REMARK   32  A    between atoms: _74  and  _75
REMARK   33  A    between atoms: _74  and  _77
REMARK   34  A    between atoms: _77  and  _78
REMARK   35  A    between atoms: _81  and  _83
REMARK   36  A    between atoms: _83  and  _84
REMARK   37  A    between atoms: _83  and  _86
REMARK   38  A    between atoms: _86  and  _87
REMARK   39  A    between atoms: _87  and  _88
REMARK   40  A    between atoms: _93  and  _95
REMARK   41  A    between atoms: _95  and  _96
REMARK   42  A    between atoms: _95  and  _98
REMARK   43  A    between atoms: _98  and  _99
REMARK   44  A    between atoms: _102  and  _104
REMARK   45  A    between atoms: _104  and  _105
REMARK   46  A    between atoms: _104  and  _107
REMARK   47  A    between atoms: _107  and  _108
REMARK   48  A    between atoms: _111  and  _113
REMARK   49  A    between atoms: _113  and  _114
REMARK   50  A    between atoms: _116  and  _118
REMARK   51  A    between atoms: _118  and  _119
REMARK   52  A    between atoms: _118  and  _121
REMARK   53  A    between atoms: _123  and  _125
REMARK   54  A    between atoms: _125  and  _126
REMARK   55  A    between atoms: _128  and  _130
REMARK   56  A    between atoms: _130  and  _131
REMARK   57  A    between atoms: _130  and  _133
REMARK   58  A    between atoms: _133  and  _134
REMARK   59  A    between atoms: _134  and  _135
REMARK   60  A    between atoms: _135  and  _136
REMARK   61  A    between atoms: _145  and  _147
REMARK   62  A    between atoms: _147  and  _148
REMARK   63  A    between atoms: _150  and  _152
REMARK   64  A    between atoms: _152  and  _153
REMARK   65  A    between atoms: _155  and  _157
REMARK   66  A    between atoms: _157  and  _158
REMARK   67  A    between atoms: _157  and  _160
REMARK   68  A    between atoms: _160  and  _161
REMARK   69  A    between atoms: _171  and  _173
REMARK   70  A    between atoms: _173  and  _174
REMARK   71  A    between atoms: _173  and  _176
REMARK   72  A    between atoms: _176  and  _177
REMARK   73  A    between atoms: _179  and  _181
REMARK   74  A    between atoms: _181  and  _182
REMARK   75  A    between atoms: _181  and  _184
REMARK   76  A    between atoms: _184  and  _185
REMARK   77  A    between atoms: _190  and  _191
REMARK   78  A    between atoms: _193  and  _195
REMARK   79  A    between atoms: _195  and  _196
REMARK   80  A    between atoms: _195  and  _198
REMARK   81  A    between atoms: _198  and  _199
REMARK   82  A    between atoms: _204  and  _205
REMARK   83  A    between atoms: _207  and  _209
REMARK   84  A    between atoms: _209  and  _210
REMARK   85  A    between atoms: _209  and  _212
REMARK   86  A    between atoms: _212  and  _213
REMARK   87  A    between atoms: _218  and  _219
REMARK   88  A    between atoms: _221  and  _223
REMARK   89  A    between atoms: _223  and  _224
REMARK   90  A    between atoms: _223  and  _226
REMARK   91  A    between atoms: _226  and  _227
REMARK   92  A    between atoms: _230  and  _232
REMARK   93  A    between atoms: _232  and  _233
REMARK   94  A    between atoms: _232  and  _235
REMARK   95  A    between atoms: _235  and  _236
REMARK   96  A    between atoms: _236  and  _237
REMARK   97  A    between atoms: _237  and  _238
REMARK   98  A    between atoms: _238  and  _239
REMARK   99  A    between atoms: _243  and  _245
REMARK  100  A    between atoms: _245  and  _246
REMARK  101  A    between atoms: _248  and  _250
REMARK  102  A    between atoms: _250  and  _251
REMARK  103  A    between atoms: _254  and  _255
REMARK  104  A    between atoms: _260  and  _262
REMARK  105  A    between atoms: _262  and  _263
REMARK  106  A    between atoms: _265  and  _267
REMARK  107  A    between atoms: _267  and  _268
REMARK  108  A    between atoms: _267  and  _270
REMARK  109  A    between atoms: _270  and  _271
REMARK  110  A    between atoms: _276  and  _278
REMARK  111  A    between atoms: _278  and  _279
REMARK  112  A    between atoms: _278  and  _281
REMARK  113  A    between atoms: _281  and  _282
REMARK  114  A    between atoms: _282  and  _283
REMARK  115  A    between atoms: _286  and  _288
REMARK  116  A    between atoms: _288  and  _289
REMARK  117  A    between atoms: _288  and  _291
REMARK  118  A    between atoms: _291  and  _292
REMARK  119  A    between atoms: _292  and  _293
REMARK  120  A    between atoms: _297  and  _298
REMARK  121  A    between atoms: _303  and  _305
REMARK  122  A    between atoms: _305  and  _306
REMARK  123  A    between atoms: _305  and  _308
REMARK  124  A    between atoms: _311  and  _313
REMARK  125  A    between atoms: _313  and  _314
REMARK  126  A    between atoms: _313  and  _316
REMARK  127  A    between atoms: _316  and  _317
REMARK  128  A    between atoms: _317  and  _318
REMARK  129  A    between atoms: _320  and  _322
REMARK  130  A    between atoms: _322  and  _323
REMARK  131  A    between atoms: _322  and  _325
REMARK  132  A    between atoms: _325  and  _326
REMARK  133  A    between atoms: _328  and  _330
REMARK  134  A    between atoms: _330  and  _331
REMARK  135  A    between atoms: _333  and  _335
REMARK  136  A    between atoms: _335  and  _336
REMARK  137  A    between atoms: _335  and  _338
REMARK  138  A    between atoms: _338  and  _339
REMARK  139  A    between atoms: _339  and  _340
REMARK  140  A    between atoms: _340  and  _341
REMARK  141  A    between atoms: _341  and  _342
REMARK  142  A    between atoms: _346  and  _348
REMARK  143  A    between atoms: _348  and  _349
REMARK  144  A    between atoms: _348  and  _351
REMARK  145  A    between atoms: _351  and  _352
REMARK  146  A    between atoms: _355  and  _357
REMARK  147  A    between atoms: _357  and  _358
REMARK  148  A    between atoms: _357  and  _360
REMARK  149  A    between atoms: _363  and  _365
REMARK  150  A    between atoms: _365  and  _366
REMARK  151  A    between atoms: _365  and  _368
REMARK  152  A    between atoms: _368  and  _369
REMARK  153  A    between atoms: _375  and  _377
REMARK  154  A    between atoms: _377  and  _378
REMARK  155  A    between atoms: _377  and  _380
REMARK  156  A    between atoms: _380  and  _381
REMARK  157  A    between atoms: _386  and  _387
REMARK  158  A    between atoms: _389  and  _391
REMARK  159  A    between atoms: _391  and  _392
REMARK  160  A    between atoms: _391  and  _394
REMARK  161  A    between atoms: _394  and  _395
REMARK  162  A    between atoms: _398  and  _400
REMARK  163  A    between atoms: _400  and  _401
REMARK  164  A    between atoms: _400  and  _403
REMARK  165  A    between atoms: _403  and  _404
REMARK  166  A    between atoms: _407  and  _409
REMARK  167  A    between atoms: _409  and  _410
REMARK  168  A    between atoms: _409  and  _412
REMARK  169  A    between atoms: _414  and  _416
REMARK  170  A    between atoms: _416  and  _417
REMARK  171  A    between atoms: _416  and  _419
REMARK  172  A    between atoms: _419  and  _420
REMARK  173  A    between atoms: _423  and  _425
REMARK  174  A    between atoms: _425  and  _426
REMARK  175  A    between atoms: _425  and  _428
REMARK  176  A    between atoms: _428  and  _429
REMARK  177  A    between atoms: _432  and  _434
REMARK  178  A    between atoms: _434  and  _435
REMARK  179  A    between atoms: _437  and  _439
REMARK  180  A    between atoms: _439  and  _440
REMARK  181  A    between atoms: _439  and  _442
REMARK  182  A    between atoms: _442  and  _443
REMARK  183  A    between atoms: _443  and  _444
REMARK  184  A    between atoms: _447  and  _449
REMARK  185  A    between atoms: _449  and  _450
REMARK  186  A    between atoms: _449  and  _452
REMARK  187  A    between atoms: _452  and  _453
REMARK  188  A    between atoms: _455  and  _457
REMARK  189  A    between atoms: _457  and  _458
REMARK  190  A    between atoms: _457  and  _460
REMARK  191  A    between atoms: _460  and  _461
REMARK  192  A    between atoms: _461  and  _462
REMARK  193  A    between atoms: _462  and  _463
REMARK  194  A    between atoms: _472  and  _474
REMARK  195  A    between atoms: _474  and  _475
REMARK  196  A    between atoms: _474  and  _477
REMARK  197  A    between atoms: _477  and  _478
REMARK  198  A    between atoms: _481  and  _483
REMARK  199  A    between atoms: _483  and  _484
REMARK  200  A    between atoms: _483  and  _486
REMARK  201  A    between atoms: _486  and  _487
REMARK  202  A    between atoms: _490  and  _492
REMARK  203  A    between atoms: _492  and  _493
REMARK  204  A    between atoms: _492  and  _495
REMARK  205  A    between atoms: _495  and  _496
REMARK  206  A    between atoms: _496  and  _497
REMARK  207  A    between atoms: _497  and  _498
REMARK  208  A    between atoms: _507  and  _509
REMARK  209  A    between atoms: _509  and  _510
REMARK  210  A    between atoms: _509  and  _512
REMARK  211  A    between atoms: _515  and  _517
REMARK  212  A    between atoms: _517  and  _518
REMARK  213  A    between atoms: _517  and  _520
REMARK  214  A    between atoms: _520  and  _521
REMARK  215  A    between atoms: _524  and  _526
REMARK  216  A    between atoms: _526  and  _527
REMARK  217  A    between atoms: _526  and  _529
REMARK  218  A    between atoms: _529  and  _530
REMARK  219  A    between atoms: _530  and  _531
REMARK  220  A    between atoms: _531  and  _532
REMARK  221  A    between atoms: _532  and  _533
REMARK  222  A    between atoms: _537  and  _539
REMARK  223  A    between atoms: _539  and  _540
REMARK  224  A    between atoms: _539  and  _542
REMARK  225  A    between atoms: _542  and  _543
REMARK  226  A    between atoms: _543  and  _544
REMARK  227  A    between atoms: _546  and  _548
REMARK  228  A    between atoms: _548  and  _549
REMARK  229  A    between atoms: _548  and  _551
REMARK  230  A    between atoms: _554  and  _556
REMARK  231  A    between atoms: _556  and  _557
REMARK  232  A    between atoms: _556  and  _559
REMARK  233  A    between atoms: _559  and  _560
REMARK  234  A    between atoms: _570  and  _572
REMARK  235  A    between atoms: _572  and  _573
REMARK  236  A    between atoms: _572  and  _575
REMARK  237  A    between atoms: _575  and  _576
REMARK  238  A    between atoms: _576  and  _577
REMARK  239  A    between atoms: _577  and  _578
REMARK  240  A    between atoms: _578  and  _579
REMARK  241  A    between atoms: _583  and  _585
REMARK  242  A    between atoms: _585  and  _586
REMARK  243  A    between atoms: _585  and  _588
REMARK  244  A    between atoms: _588  and  _589
REMARK  245  A    between atoms: _592  and  _594
REMARK  246  A    between atoms: _594  and  _595
REMARK  247  A    between atoms: _594  and  _597
REMARK  248  A    between atoms: _597  and  _598
REMARK  249  A    between atoms: _603  and  _604
REMARK                            x       y       z     vdW  Elec       q    Type
REMARK                         _______ _______ _______ _____ _____    ______ ____
ROOT
ATOM      1  CA  LEU A   1      -4.906  -5.398  38.634  0.00  0.00    +0.133 C 
ENDROOT
BRANCH   1   2
ATOM      2  N   LEU A   1      -4.319  -5.977  37.431  0.00  0.00    -0.239 NA
ATOM      3  H   LEU A   1      -3.781  -5.358  36.792  0.00  0.00    +0.142 HD
ENDBRANCH   1   2
BRANCH   1   4
ATOM      4  C   LEU A   1      -6.414  -5.582  38.667  0.00  0.00    +0.224 C 
ATOM      5  O   LEU A   1      -6.978  -6.066  39.675  0.00  0.00    -0.287 OA
ENDBRANCH   1   4
BRANCH   1   6
ATOM      6  CB  LEU A   1      -4.529  -3.919  38.704  0.00  0.00    +0.025 C 
BRANCH   6   7
ATOM      7  CG  LEU A   1      -5.367  -3.166  39.746  0.00  0.00    +0.002 C 
ATOM      8  CD2 LEU A   1      -5.038  -3.589  41.209  0.00  0.00    +0.000 C 
ATOM      9  CD1 LEU A   1      -5.270  -1.623  39.484  0.00  0.00    +0.000 C 
ENDBRANCH   6   7
ENDBRANCH   1   6
TORSDOF 4
REMARK  Name = ../refined-set-2016/3p8z/3p8z_pocket.pdb
REMARK  249 active torsions:
REMARK  status: ('A' for Active; 'I' for Inactive)
REMARK    1  A    between atoms: _1  and  _3
REMARK    2  A    between atoms: _3  and  _4
REMARK    3  A    between atoms: _7  and  _9
REMARK    4  A    between atoms: _9  and  _10
REMARK    5  A    between atoms: _9  and  _12
REMARK    6  A    between atoms: _15  and  _17
REMARK    7  A    between atoms: _17  and  _18
REMARK    8  A    between atoms: _17  and  _20
REMARK    9  A    between atoms: _20  and  _21
REMARK   10  A    between atoms: _23  and  _25
REMARK   11  A    between atoms: _25  and  _26
REMARK   12  A    between atoms: _25  and  _28
REMARK   13  A    between atoms: _28  and  _29
REMARK   14  A    between atoms: _29  and  _30
REMARK   15  A    between atoms: _30  and  _31
REMARK   16  A    between atoms: _40  and  _42
REMARK   17  A    between atoms: _42  and  _43
REMARK   18  A    between atoms: _45  and  _47
REMARK   19  A    between atoms: _47  and  _48
REMARK   20  A    between atoms: _47  and  _50
REMARK   21  A    between atoms: _50  and  _51
REMARK   22  A    between atoms: _53  and  _55
REMARK   23  A    between atoms: _55  and  _56
REMARK   24  A    between atoms: _59  and  _61
REMARK   25  A    between atoms: _61  and  _62
REMARK   26  A    between atoms: _61  and  _64
REMARK   27  A    between atoms: _64  and  _65
REMARK   28  A    between atoms: _65  and  _66
REMARK   29  A    between atoms: _66  and  _67
REMARK   30  A    between atoms: _67  and  _68
REMARK   31  A    between atoms: _72  and  _74
REMARK   32  A    between atoms: _74  and  _75
REMARK   33  A    between atoms: _74  and  _77
REMARK   34  A    between atoms: _77  and  _78
REMARK   35  A    between atoms: _81  and  _83
REMARK   36  A    between atoms: _83  and  _84
REMARK   37  A    between atoms: _83  and  _86
REMARK   38  A    between atoms: _86  and  _87
REMARK   39  A    between atoms: _87  and  _88
REMARK   40  A    between atoms: _93  and  _95
REMARK   41  A    between atoms: _95  and  _96
REMARK   42  A    between atoms: _95  and  _98
REMARK   43  A    between atoms: _98  and  _99
REMARK   44  A    between atoms: _102  and  _104
REMARK   45  A    between atoms: _104  and  _105
REMARK   46  A    between atoms: _104  and  _107
REMARK   47  A    between atoms: _107  and  _108
REMARK   48  A    between atoms: _111  and  _113
REMARK   49  A    between atoms: _113  and  _114
REMARK   50  A    between atoms: _116  and  _118
REMARK   51  A    between atoms: _118  and  _119
REMARK   52  A    between atoms: _118  and  _121
REMARK   53  A    between atoms: _123  and  _125
REMARK   54  A    between atoms: _125  and  _126
REMARK   55  A    between atoms: _128  and  _130
REMARK   56  A    between atoms: _130  and  _131
REMARK   57  A    between atoms: _130  and  _133
REMARK   58  A    between atoms: _133  and  _134
REMARK   59  A    between atoms: _134  and  _135
REMARK   60  A    between atoms: _135  and  _136
REMARK   61  A    between atoms: _145  and  _147
REMARK   62  A    between atoms: _147  and  _148
REMARK   63  A    between atoms: _150  and  _152
REMARK   64  A    between atoms: _152  and  _153
REMARK   65  A    between atoms: _155  and  _157
REMARK   66  A    between atoms: _157  and  _158
REMARK   67  A    between atoms: _157  and  _160
REMARK   68  A    between atoms: _160  and  _161
REMARK   69  A    between atoms: _171  and  _173
REMARK   70  A    between atoms: _173  and  _174
REMARK   71  A    between atoms: _173  and  _176
REMARK   72  A    between atoms: _176  and  _177
REMARK   73  A    between atoms: _179  and  _181
REMARK   74  A    between atoms: _181  and  _182
REMARK   75  A    between atoms: _181  and  _184
REMARK   76  A    between atoms: _184  and  _185
REMARK   77  A    between atoms: _190  and  _191
REMARK   78  A    between atoms: _193  and  _195
REMARK   79  A    between atoms: _195  and  _196
REMARK   80  A    between atoms: _195  and  _198
REMARK   81  A    between atoms: _198  and  _199
REMARK   82  A    between atoms: _204  and  _205
REMARK   83  A    between atoms: _207  and  _209
REMARK   84  A    between atoms: _209  and  _210
REMARK   85  A    between atoms: _209  and  _212
REMARK   86  A    between atoms: _212  and  _213
REMARK   87  A    between atoms: _218  and  _219
REMARK   88  A    between atoms: _221  and  _223
REMARK   89  A    between atoms: _223  and  _224
REMARK   90  A    between atoms: _223  and  _226
REMARK   91  A    between atoms: _226  and  _227
REMARK   92  A    between atoms: _230  and  _232
REMARK   93  A    between atoms: _232  and  _233
REMARK   94  A    between atoms: _232  and  _235
REMARK   95  A    between atoms: _235  and  _236
REMARK   96  A    between atoms: _236  and  _237
REMARK   97  A    between atoms: _237  and  _238
REMARK   98  A    between atoms: _238  and  _239
REMARK   99  A    between atoms: _243  and  _245
REMARK  100  A    between atoms: _245  and  _246
REMARK  101  A    between atoms: _248  and  _250
REMARK  102  A    between atoms: _250  and  _251
REMARK  103  A    between atoms: _254  and  _255
REMARK  104  A    between atoms: _260  and  _262
REMARK  105  A    between atoms: _262  and  _263
REMARK  106  A    between atoms: _265  and  _267
REMARK  107  A    between atoms: _267  and  _268
REMARK  108  A    between atoms: _267  and  _270
REMARK  109  A    between atoms: _270  and  _271
REMARK  110  A    between atoms: _276  and  _278
REMARK  111  A    between atoms: _278  and  _279
REMARK  112  A    between atoms: _278  and  _281
REMARK  113  A    between atoms: _281  and  _282
REMARK  114  A    between atoms: _282  and  _283
REMARK  115  A    between atoms: _286  and  _288
REMARK  116  A    between atoms: _288  and  _289
REMARK  117  A    between atoms: _288  and  _291
REMARK  118  A    between atoms: _291  and  _292
REMARK  119  A    between atoms: _292  and  _293
REMARK  120  A    between atoms: _297  and  _298
REMARK  121  A    between atoms: _303  and  _305
REMARK  122  A    between atoms: _305  and  _306
REMARK  123  A    between atoms: _305  and  _308
REMARK  124  A    between atoms: _311  and  _313
REMARK  125  A    between atoms: _313  and  _314
REMARK  126  A    between atoms: _313  and  _316
REMARK  127  A    between atoms: _316  and  _317
REMARK  128  A    between atoms: _317  and  _318
REMARK  129  A    between atoms: _320  and  _322
REMARK  130  A    between atoms: _322  and  _323
REMARK  131  A    between atoms: _322  and  _325
REMARK  132  A    between atoms: _325  and  _326
REMARK  133  A    between atoms: _328  and  _330
REMARK  134  A    between atoms: _330  and  _331
REMARK  135  A    between atoms: _333  and  _335
REMARK  136  A    between atoms: _335  and  _336
REMARK  137  A    between atoms: _335  and  _338
REMARK  138  A    between atoms: _338  and  _339
REMARK  139  A    between atoms: _339  and  _340
REMARK  140  A    between atoms: _340  and  _341
REMARK  141  A    between atoms: _341  and  _342
REMARK  142  A    between atoms: _346  and  _348
REMARK  143  A    between atoms: _348  and  _349
REMARK  144  A    between atoms: _348  and  _351
REMARK  145  A    between atoms: _351  and  _352
REMARK  146  A    between atoms: _355  and  _357
REMARK  147  A    between atoms: _357  and  _358
REMARK  148  A    between atoms: _357  and  _360
REMARK  149  A    between atoms: _363  and  _365
REMARK  150  A    between atoms: _365  and  _366
REMARK  151  A    between atoms: _365  and  _368
REMARK  152  A    between atoms: _368  and  _369
REMARK  153  A    between atoms: _375  and  _377
REMARK  154  A    between atoms: _377  and  _378
REMARK  155  A    between atoms: _377  and  _380
REMARK  156  A    between atoms: _380  and  _381
REMARK  157  A    between atoms: _386  and  _387
REMARK  158  A    between atoms: _389  and  _391
REMARK  159  A    between atoms: _391  and  _392
REMARK  160  A    between atoms: _391  and  _394
REMARK  161  A    between atoms: _394  and  _395
REMARK  162  A    between atoms: _398  and  _400
REMARK  163  A    between atoms: _400  and  _401
REMARK  164  A    between atoms: _400  and  _403
REMARK  165  A    between atoms: _403  and  _404
REMARK  166  A    between atoms: _407  and  _409
REMARK  167  A    between atoms: _409  and  _410
REMARK  168  A    between atoms: _409  and  _412
REMARK  169  A    between atoms: _414  and  _416
REMARK  170  A    between atoms: _416  and  _417
REMARK  171  A    between atoms: _416  and  _419
REMARK  172  A    between atoms: _419  and  _420
REMARK  173  A    between atoms: _423  and  _425
REMARK  174  A    between atoms: _425  and  _426
REMARK  175  A    between atoms: _425  and  _428
REMARK  176  A    between atoms: _428  and  _429
REMARK  177  A    between atoms: _432  and  _434
REMARK  178  A    between atoms: _434  and  _435
REMARK  179  A    between atoms: _437  and  _439
REMARK  180  A    between atoms: _439  and  _440
REMARK  181  A    between atoms: _439  and  _442
REMARK  182  A    between atoms: _442  and  _443
REMARK  183  A    between atoms: _443  and  _444
REMARK  184  A    between atoms: _447  and  _449
REMARK  185  A    between atoms: _449  and  _450
REMARK  186  A    between atoms: _449  and  _452
REMARK  187  A    between atoms: _452  and  _453
REMARK  188  A    between atoms: _455  and  _457
REMARK  189  A    between atoms: _457  and  _458
REMARK  190  A    between atoms: _457  and  _460
REMARK  191  A    between atoms: _460  and  _461
REMARK  192  A    between atoms: _461  and  _462
REMARK  193  A    between atoms: _462  and  _463
REMARK  194  A    between atoms: _472  and  _474
REMARK  195  A    between atoms: _474  and  _475
REMARK  196  A    between atoms: _474  and  _477
REMARK  197  A    between atoms: _477  and  _478
REMARK  198  A    between atoms: _481  and  _483
REMARK  199  A    between atoms: _483  and  _484
REMARK  200  A    between atoms: _483  and  _486
REMARK  201  A    between atoms: _486  and  _487
REMARK  202  A    between atoms: _490  and  _492
REMARK  203  A    between atoms: _492  and  _493
REMARK  204  A    between atoms: _492  and  _495
REMARK  205  A    between atoms: _495  and  _496
REMARK  206  A    between atoms: _496  and  _497
REMARK  207  A    between atoms: _497  and  _498
REMARK  208  A    between atoms: _507  and  _509
REMARK  209  A    between atoms: _509  and  _510
REMARK  210  A    between atoms: _509  and  _512
REMARK  211  A    between atoms: _515  and  _517
REMARK  212  A    between atoms: _517  and  _518
REMARK  213  A    between atoms: _517  and  _520
REMARK  214  A    between atoms: _520  and  _521
REMARK  215  A    between atoms: _524  and  _526
REMARK  216  A    between atoms: _526  and  _527
REMARK  217  A    between atoms: _526  and  _529
REMARK  218  A    between atoms: _529  and  _530
REMARK  219  A    between atoms: _530  and  _531
REMARK  220  A    between atoms: _531  and  _532
REMARK  221  A    between atoms: _532  and  _533
REMARK  222  A    between atoms: _537  and  _539
REMARK  223  A    between atoms: _539  and  _540
REMARK  224  A    between atoms: _539  and  _542
REMARK  225  A    between atoms: _542  and  _543
REMARK  226  A    between atoms: _543  and  _544
REMARK  227  A    between atoms: _546  and  _548
REMARK  228  A    between atoms: _548  and  _549
REMARK  229  A    between atoms: _548  and  _551
REMARK  230  A    between atoms: _554  and  _556
REMARK  231  A    between atoms: _556  and  _557
REMARK  232  A    between atoms: _556  and  _559
REMARK  233  A    between atoms: _559  and  _560
REMARK  234  A    between atoms: _570  and  _572
REMARK  235  A    between atoms: _572  and  _573
REMARK  236  A    between atoms: _572  and  _575
REMARK  237  A    between atoms: _575  and  _576
REMARK  238  A    between atoms: _576  and  _577
REMARK  239  A    between atoms: _577  and  _578
REMARK  240  A    between atoms: _578  and  _579
REMARK  241  A    between atoms: _583  and  _585
REMARK  242  A    between atoms: _585  and  _586
REMARK  243  A    between atoms: _585  and  _588
REMARK  244  A    between atoms: _588  and  _589
REMARK  245  A    between atoms: _592  and  _594
REMARK  246  A    between atoms: _594  and  _595
REMARK  247  A    between atoms: _594  and  _597
REMARK  248  A    between atoms: _597  and  _598
REMARK  249  A    between atoms: _603  and  _604
REMARK                            x       y       z     vdW  Elec       q    Type
REMARK                         _______ _______ _______ _____ _____    ______ ____
ROOT
ATOM      1  CG  TYR A   1      -0.055 -12.433  38.935  0.00  0.00    -0.020 A 
ATOM      2  CD2 TYR A   1      -0.891 -12.401  40.071  0.00  0.00    -0.001 A 
ATOM      3  CE2 TYR A   1      -0.624 -11.546  41.129  0.00  0.00    +0.036 A 
ATOM      4  CZ  TYR A   1       0.446 -10.686  41.059  0.00  0.00    +0.134 A 
ATOM      5  CE1 TYR A   1       1.296 -10.706  39.959  0.00  0.00    +0.036 A 
ATOM      6  CD1 TYR A   1       1.023 -11.553  38.892  0.00  0.00    -0.001 A 
ENDROOT
BRANCH   4   7
ATOM      7  OH  TYR A   1       0.705  -9.854  42.121  0.00  0.00    -0.506 OA
ATOM      8  HH  TYR A   1       0.711  -8.914  41.809  0.00  0.00    +0.292 HD
ENDBRANCH   4   7
BRANCH   1   9
ATOM      9  CB  TYR A   1      -0.359 -13.326  37.779  0.00  0.00    +0.051 C 
BRANCH   9  10
ATOM     10  CA  TYR A   1      -1.552 -12.828  36.950  0.00  0.00    +0.137 C 
BRANCH  10  11
ATOM     11  N   TYR A   1      -2.825 -12.969  37.656  0.00  0.00    -0.239 NA
ATOM     12  H   TYR A   1      -3.142 -13.909  37.967  0.00  0.00    +0.142 HD
ENDBRANCH  10  11
BRANCH  10  13
ATOM     13  C   TYR A   1      -1.620 -13.546  35.616  0.00  0.00    +0.224 C 
ATOM     14  O   TYR A   1      -2.082 -14.704  35.547  0.00  0.00    -0.287 OA
ENDBRANCH  10  13
ENDBRANCH   9  10
ENDBRANCH   1   9
TORSDOF 5
REMARK  Name = ../refined-set-2016/3p8z/3p8z_pocket.pdb
REMARK  249 active torsions:
REMARK  status: ('A' for Active; 'I' for Inactive)
REMARK    1  A    between atoms: _1  and  _3
REMARK    2  A    between atoms: _3  and  _4
REMARK    3  A    between atoms: _7  and  _9
REMARK    4  A    between atoms: _9  and  _10
REMARK    5  A    between atoms: _9  and  _12
REMARK    6  A    between atoms: _15  and  _17
REMARK    7  A    between atoms: _17  and  _18
REMARK    8  A    between atoms: _17  and  _20
REMARK    9  A    between atoms: _20  and  _21
REMARK   10  A    between atoms: _23  and  _25
REMARK   11  A    between atoms: _25  and  _26
REMARK   12  A    between atoms: _25  and  _28
REMARK   13  A    between atoms: _28  and  _29
REMARK   14  A    between atoms: _29  and  _30
REMARK   15  A    between atoms: _30  and  _31
REMARK   16  A    between atoms: _40  and  _42
REMARK   17  A    between atoms: _42  and  _43
REMARK   18  A    between atoms: _45  and  _47
REMARK   19  A    between atoms: _47  and  _48
REMARK   20  A    between atoms: _47  and  _50
REMARK   21  A    between atoms: _50  and  _51
REMARK   22  A    between atoms: _53  and  _55
REMARK   23  A    between atoms: _55  and  _56
REMARK   24  A    between atoms: _59  and  _61
REMARK   25  A    between atoms: _61  and  _62
REMARK   26  A    between atoms: _61  and  _64
REMARK   27  A    between atoms: _64  and  _65
REMARK   28  A    between atoms: _65  and  _66
REMARK   29  A    between atoms: _66  and  _67
REMARK   30  A    between atoms: _67  and  _68
REMARK   31  A    between atoms: _72  and  _74
REMARK   32  A    between atoms: _74  and  _75
REMARK   33  A    between atoms: _74  and  _77
REMARK   34  A    between atoms: _77  and  _78
REMARK   35  A    between atoms: _81  and  _83
REMARK   36  A    between atoms: _83  and  _84
REMARK   37  A    between atoms: _83  and  _86
REMARK   38  A    between atoms: _86  and  _87
REMARK   39  A    between atoms: _87  and  _88
REMARK   40  A    between atoms: _93  and  _95
REMARK   41  A    between atoms: _95  and  _96
REMARK   42  A    between atoms: _95  and  _98
REMARK   43  A    between atoms: _98  and  _99
REMARK   44  A    between atoms: _102  and  _104
REMARK   45  A    between atoms: _104  and  _105
REMARK   46  A    between atoms: _104  and  _107
REMARK   47  A    between atoms: _107  and  _108
REMARK   48  A    between atoms: _111  and  _113
REMARK   49  A    between atoms: _113  and  _114
REMARK   50  A    between atoms: _116  and  _118
REMARK   51  A    between atoms: _118  and  _119
REMARK   52  A    between atoms: _118  and  _121
REMARK   53  A    between atoms: _123  and  _125
REMARK   54  A    between atoms: _125  and  _126
REMARK   55  A    between atoms: _128  and  _130
REMARK   56  A    between atoms: _130  and  _131
REMARK   57  A    between atoms: _130  and  _133
REMARK   58  A    between atoms: _133  and  _134
REMARK   59  A    between atoms: _134  and  _135
REMARK   60  A    between atoms: _135  and  _136
REMARK   61  A    between atoms: _145  and  _147
REMARK   62  A    between atoms: _147  and  _148
REMARK   63  A    between atoms: _150  and  _152
REMARK   64  A    between atoms: _152  and  _153
REMARK   65  A    between atoms: _155  and  _157
REMARK   66  A    between atoms: _157  and  _158
REMARK   67  A    between atoms: _157  and  _160
REMARK   68  A    between atoms: _160  and  _161
REMARK   69  A    between atoms: _171  and  _173
REMARK   70  A    between atoms: _173  and  _174
REMARK   71  A    between atoms: _173  and  _176
REMARK   72  A    between atoms: _176  and  _177
REMARK   73  A    between atoms: _179  and  _181
REMARK   74  A    between atoms: _181  and  _182
REMARK   75  A    between atoms: _181  and  _184
REMARK   76  A    between atoms: _184  and  _185
REMARK   77  A    between atoms: _190  and  _191
REMARK   78  A    between atoms: _193  and  _195
REMARK   79  A    between atoms: _195  and  _196
REMARK   80  A    between atoms: _195  and  _198
REMARK   81  A    between atoms: _198  and  _199
REMARK   82  A    between atoms: _204  and  _205
REMARK   83  A    between atoms: _207  and  _209
REMARK   84  A    between atoms: _209  and  _210
REMARK   85  A    between atoms: _209  and  _212
REMARK   86  A    between atoms: _212  and  _213
REMARK   87  A    between atoms: _218  and  _219
REMARK   88  A    between atoms: _221  and  _223
REMARK   89  A    between atoms: _223  and  _224
REMARK   90  A    between atoms: _223  and  _226
REMARK   91  A    between atoms: _226  and  _227
REMARK   92  A    between atoms: _230  and  _232
REMARK   93  A    between atoms: _232  and  _233
REMARK   94  A    between atoms: _232  and  _235
REMARK   95  A    between atoms: _235  and  _236
REMARK   96  A    between atoms: _236  and  _237
REMARK   97  A    between atoms: _237  and  _238
REMARK   98  A    between atoms: _238  and  _239
REMARK   99  A    between atoms: _243  and  _245
REMARK  100  A    between atoms: _245  and  _246
REMARK  101  A    between atoms: _248  and  _250
REMARK  102  A    between atoms: _250  and  _251
REMARK  103  A    between atoms: _254  and  _255
REMARK  104  A    between atoms: _260  and  _262
REMARK  105  A    between atoms: _262  and  _263
REMARK  106  A    between atoms: _265  and  _267
REMARK  107  A    between atoms: _267  and  _268
REMARK  108  A    between atoms: _267  and  _270
REMARK  109  A    between atoms: _270  and  _271
REMARK  110  A    between atoms: _276  and  _278
REMARK  111  A    between atoms: _278  and  _279
REMARK  112  A    between atoms: _278  and  _281
REMARK  113  A    between atoms: _281  and  _282
REMARK  114  A    between atoms: _282  and  _283
REMARK  115  A    between atoms: _286  and  _288
REMARK  116  A    between atoms: _288  and  _289
REMARK  117  A    between atoms: _288  and  _291
REMARK  118  A    between atoms: _291  and  _292
REMARK  119  A    between atoms: _292  and  _293
REMARK  120  A    between atoms: _297  and  _298
REMARK  121  A    between atoms: _303  and  _305
REMARK  122  A    between atoms: _305  and  _306
REMARK  123  A    between atoms: _305  and  _308
REMARK  124  A    between atoms: _311  and  _313
REMARK  125  A    between atoms: _313  and  _314
REMARK  126  A    between atoms: _313  and  _316
REMARK  127  A    between atoms: _316  and  _317
REMARK  128  A    between atoms: _317  and  _318
REMARK  129  A    between atoms: _320  and  _322
REMARK  130  A    between atoms: _322  and  _323
REMARK  131  A    between atoms: _322  and  _325
REMARK  132  A    between atoms: _325  and  _326
REMARK  133  A    between atoms: _328  and  _330
REMARK  134  A    between atoms: _330  and  _331
REMARK  135  A    between atoms: _333  and  _335
REMARK  136  A    between atoms: _335  and  _336
REMARK  137  A    between atoms: _335  and  _338
REMARK  138  A    between atoms: _338  and  _339
REMARK  139  A    between atoms: _339  and  _340
REMARK  140  A    between atoms: _340  and  _341
REMARK  141  A    between atoms: _341  and  _342
REMARK  142  A    between atoms: _346  and  _348
REMARK  143  A    between atoms: _348  and  _349
REMARK  144  A    between atoms: _348  and  _351
REMARK  145  A    between atoms: _351  and  _352
REMARK  146  A    between atoms: _355  and  _357
REMARK  147  A    between atoms: _357  and  _358
REMARK  148  A    between atoms: _357  and  _360
REMARK  149  A    between atoms: _363  and  _365
REMARK  150  A    between atoms: _365  and  _366
REMARK  151  A    between atoms: _365  and  _368
REMARK  152  A    between atoms: _368  and  _369
REMARK  153  A    between atoms: _375  and  _377
REMARK  154  A    between atoms: _377  and  _378
REMARK  155  A    between atoms: _377  and  _380
REMARK  156  A    between atoms: _380  and  _381
REMARK  157  A    between atoms: _386  and  _387
REMARK  158  A    between atoms: _389  and  _391
REMARK  159  A    between atoms: _391  and  _392
REMARK  160  A    between atoms: _391  and  _394
REMARK  161  A    between atoms: _394  and  _395
REMARK  162  A    between atoms: _398  and  _400
REMARK  163  A    between atoms: _400  and  _401
REMARK  164  A    between atoms: _400  and  _403
REMARK  165  A    between atoms: _403  and  _404
REMARK  166  A    between atoms: _407  and  _409
REMARK  167  A    between atoms: _409  and  _410
REMARK  168  A    between atoms: _409  and  _412
REMARK  169  A    between atoms: _414  and  _416
REMARK  170  A    between atoms: _416  and  _417
REMARK  171  A    between atoms: _416  and  _419
REMARK  172  A    between atoms: _419  and  _420
REMARK  173  A    between atoms: _423  and  _425
REMARK  174  A    between atoms: _425  and  _426
REMARK  175  A    between atoms: _425  and  _428
REMARK  176  A    between atoms: _428  and  _429
REMARK  177  A    between atoms: _432  and  _434
REMARK  178  A    between atoms: _434  and  _435
REMARK  179  A    between atoms: _437  and  _439
REMARK  180  A    between atoms: _439  and  _440
REMARK  181  A    between atoms: _439  and  _442
REMARK  182  A    between atoms: _442  and  _443
REMARK  183  A    between atoms: _443  and  _444
REMARK  184  A    between atoms: _447  and  _449
REMARK  185  A    between atoms: _449  and  _450
REMARK  186  A    between atoms: _449  and  _452
REMARK  187  A    between atoms: _452  and  _453
REMARK  188  A    between atoms: _455  and  _457
REMARK  189  A    between atoms: _457  and  _458
REMARK  190  A    between atoms: _457  and  _460
REMARK  191  A    between atoms: _460  and  _461
REMARK  192  A    between atoms: _461  and  _462
REMARK  193  A    between atoms: _462  and  _463
REMARK  194  A    between atoms: _472  and  _474
REMARK  195  A    between atoms: _474  and  _475
REMARK  196  A    between atoms: _474  and  _477
REMARK  197  A    between atoms: _477  and  _478
REMARK  198  A    between atoms: _481  and  _483
REMARK  199  A    between atoms: _483  and  _484
REMARK  200  A    between atoms: _483  and  _486
REMARK  201  A    between atoms: _486  and  _487
REMARK  202  A    between atoms: _490  and  _492
REMARK  203  A    between atoms: _492  and  _493
REMARK  204  A    between atoms: _492  and  _495
REMARK  205  A    between atoms: _495  and  _496
REMARK  206  A    between atoms: _496  and  _497
REMARK  207  A    between atoms: _497  and  _498
REMARK  208  A    between atoms: _507  and  _509
REMARK  209  A    between atoms: _509  and  _510
REMARK  210  A    between atoms: _509  and  _512
REMARK  211  A    between atoms: _515  and  _517
REMARK  212  A    between atoms: _517  and  _518
REMARK  213  A    between atoms: _517  and  _520
REMARK  214  A    between atoms: _520  and  _521
REMARK  215  A    between atoms: _524  and  _526
REMARK  216  A    between atoms: _526  and  _527
REMARK  217  A    between atoms: _526  and  _529
REMARK  218  A    between atoms: _529  and  _530
REMARK  219  A    between atoms: _530  and  _531
REMARK  220  A    between atoms: _531  and  _532
REMARK  221  A    between atoms: _532  and  _533
REMARK  222  A    between atoms: _537  and  _539
REMARK  223  A    between atoms: _539  and  _540
REMARK  224  A    between atoms: _539  and  _542
REMARK  225  A    between atoms: _542  and  _543
REMARK  226  A    between atoms: _543  and  _544
REMARK  227  A    between atoms: _546  and  _548
REMARK  228  A    between atoms: _548  and  _549
REMARK  229  A    between atoms: _548  and  _551
REMARK  230  A    between atoms: _554  and  _556
REMARK  231  A    between atoms: _556  and  _557
REMARK  232  A    between atoms: _556  and  _559
REMARK  233  A    between atoms: _559  and  _560
REMARK  234  A    between atoms: _570  and  _572
REMARK  235  A    between atoms: _572  and  _573
REMARK  236  A    between atoms: _572  and  _575
REMARK  237  A    between atoms: _575  and  _576
REMARK  238  A    between atoms: _576  and  _577
REMARK  239  A    between atoms: _577  and  _578
REMARK  240  A    between atoms: _578  and  _579
REMARK  241  A    between atoms: _583  and  _585
REMARK  242  A    between atoms: _585  and  _586
REMARK  243  A    between atoms: _585  and  _588
REMARK  244  A    between atoms: _588  and  _589
REMARK  245  A    between atoms: _592  and  _594
REMARK  246  A    between atoms: _594  and  _595
REMARK  247  A    between atoms: _594  and  _597
REMARK  248  A    between atoms: _597  and  _598
REMARK  249  A    between atoms: _603  and  _604
REMARK                            x       y       z     vdW  Elec       q    Type
REMARK                         _______ _______ _______ _____ _____    ______ ____
ROOT
ATOM      1  O   HOH     1       1.707  -0.555  41.928  0.00  0.00    +0.000 OA
ENDROOT
TORSDOF 0
REMARK  Name = ../refined-set-2016/3p8z/3p8z_pocket.pdb
REMARK  249 active torsions:
REMARK  status: ('A' for Active; 'I' for Inactive)
REMARK    1  A    between atoms: _1  and  _3
REMARK    2  A    between atoms: _3  and  _4
REMARK    3  A    between atoms: _7  and  _9
REMARK    4  A    between atoms: _9  and  _10
REMARK    5  A    between atoms: _9  and  _12
REMARK    6  A    between atoms: _15  and  _17
REMARK    7  A    between atoms: _17  and  _18
REMARK    8  A    between atoms: _17  and  _20
REMARK    9  A    between atoms: _20  and  _21
REMARK   10  A    between atoms: _23  and  _25
REMARK   11  A    between atoms: _25  and  _26
REMARK   12  A    between atoms: _25  and  _28
REMARK   13  A    between atoms: _28  and  _29
REMARK   14  A    between atoms: _29  and  _30
REMARK   15  A    between atoms: _30  and  _31
REMARK   16  A    between atoms: _40  and  _42
REMARK   17  A    between atoms: _42  and  _43
REMARK   18  A    between atoms: _45  and  _47
REMARK   19  A    between atoms: _47  and  _48
REMARK   20  A    between atoms: _47  and  _50
REMARK   21  A    between atoms: _50  and  _51
REMARK   22  A    between atoms: _53  and  _55
REMARK   23  A    between atoms: _55  and  _56
REMARK   24  A    between atoms: _59  and  _61
REMARK   25  A    between atoms: _61  and  _62
REMARK   26  A    between atoms: _61  and  _64
REMARK   27  A    between atoms: _64  and  _65
REMARK   28  A    between atoms: _65  and  _66
REMARK   29  A    between atoms: _66  and  _67
REMARK   30  A    between atoms: _67  and  _68
REMARK   31  A    between atoms: _72  and  _74
REMARK   32  A    between atoms: _74  and  _75
REMARK   33  A    between atoms: _74  and  _77
REMARK   34  A    between atoms: _77  and  _78
REMARK   35  A    between atoms: _81  and  _83
REMARK   36  A    between atoms: _83  and  _84
REMARK   37  A    between atoms: _83  and  _86
REMARK   38  A    between atoms: _86  and  _87
REMARK   39  A    between atoms: _87  and  _88
REMARK   40  A    between atoms: _93  and  _95
REMARK   41  A    between atoms: _95  and  _96
REMARK   42  A    between atoms: _95  and  _98
REMARK   43  A    between atoms: _98  and  _99
REMARK   44  A    between atoms: _102  and  _104
REMARK   45  A    between atoms: _104  and  _105
REMARK   46  A    between atoms: _104  and  _107
REMARK   47  A    between atoms: _107  and  _108
REMARK   48  A    between atoms: _111  and  _113
REMARK   49  A    between atoms: _113  and  _114
REMARK   50  A    between atoms: _116  and  _118
REMARK   51  A    between atoms: _118  and  _119
REMARK   52  A    between atoms: _118  and  _121
REMARK   53  A    between atoms: _123  and  _125
REMARK   54  A    between atoms: _125  and  _126
REMARK   55  A    between atoms: _128  and  _130
REMARK   56  A    between atoms: _130  and  _131
REMARK   57  A    between atoms: _130  and  _133
REMARK   58  A    between atoms: _133  and  _134
REMARK   59  A    between atoms: _134  and  _135
REMARK   60  A    between atoms: _135  and  _136
REMARK   61  A    between atoms: _145  and  _147
REMARK   62  A    between atoms: _147  and  _148
REMARK   63  A    between atoms: _150  and  _152
REMARK   64  A    between atoms: _152  and  _153
REMARK   65  A    between atoms: _155  and  _157
REMARK   66  A    between atoms: _157  and  _158
REMARK   67  A    between atoms: _157  and  _160
REMARK   68  A    between atoms: _160  and  _161
REMARK   69  A    between atoms: _171  and  _173
REMARK   70  A    between atoms: _173  and  _174
REMARK   71  A    between atoms: _173  and  _176
REMARK   72  A    between atoms: _176  and  _177
REMARK   73  A    between atoms: _179  and  _181
REMARK   74  A    between atoms: _181  and  _182
REMARK   75  A    between atoms: _181  and  _184
REMARK   76  A    between atoms: _184  and  _185
REMARK   77  A    between atoms: _190  and  _191
REMARK   78  A    between atoms: _193  and  _195
REMARK   79  A    between atoms: _195  and  _196
REMARK   80  A    between atoms: _195  and  _198
REMARK   81  A    between atoms: _198  and  _199
REMARK   82  A    between atoms: _204  and  _205
REMARK   83  A    between atoms: _207  and  _209
REMARK   84  A    between atoms: _209  and  _210
REMARK   85  A    between atoms: _209  and  _212
REMARK   86  A    between atoms: _212  and  _213
REMARK   87  A    between atoms: _218  and  _219
REMARK   88  A    between atoms: _221  and  _223
REMARK   89  A    between atoms: _223  and  _224
REMARK   90  A    between atoms: _223  and  _226
REMARK   91  A    between atoms: _226  and  _227
REMARK   92  A    between atoms: _230  and  _232
REMARK   93  A    between atoms: _232  and  _233
REMARK   94  A    between atoms: _232  and  _235
REMARK   95  A    between atoms: _235  and  _236
REMARK   96  A    between atoms: _236  and  _237
REMARK   97  A    between atoms: _237  and  _238
REMARK   98  A    between atoms: _238  and  _239
REMARK   99  A    between atoms: _243  and  _245
REMARK  100  A    between atoms: _245  and  _246
REMARK  101  A    between atoms: _248  and  _250
REMARK  102  A    between atoms: _250  and  _251
REMARK  103  A    between atoms: _254  and  _255
REMARK  104  A    between atoms: _260  and  _262
REMARK  105  A    between atoms: _262  and  _263
REMARK  106  A    between atoms: _265  and  _267
REMARK  107  A    between atoms: _267  and  _268
REMARK  108  A    between atoms: _267  and  _270
REMARK  109  A    between atoms: _270  and  _271
REMARK  110  A    between atoms: _276  and  _278
REMARK  111  A    between atoms: _278  and  _279
REMARK  112  A    between atoms: _278  and  _281
REMARK  113  A    between atoms: _281  and  _282
REMARK  114  A    between atoms: _282  and  _283
REMARK  115  A    between atoms: _286  and  _288
REMARK  116  A    between atoms: _288  and  _289
REMARK  117  A    between atoms: _288  and  _291
REMARK  118  A    between atoms: _291  and  _292
REMARK  119  A    between atoms: _292  and  _293
REMARK  120  A    between atoms: _297  and  _298
REMARK  121  A    between atoms: _303  and  _305
REMARK  122  A    between atoms: _305  and  _306
REMARK  123  A    between atoms: _305  and  _308
REMARK  124  A    between atoms: _311  and  _313
REMARK  125  A    between atoms: _313  and  _314
REMARK  126  A    between atoms: _313  and  _316
REMARK  127  A    between atoms: _316  and  _317
REMARK  128  A    between atoms: _317  and  _318
REMARK  129  A    between atoms: _320  and  _322
REMARK  130  A    between atoms: _322  and  _323
REMARK  131  A    between atoms: _322  and  _325
REMARK  132  A    between atoms: _325  and  _326
REMARK  133  A    between atoms: _328  and  _330
REMARK  134  A    between atoms: _330  and  _331
REMARK  135  A    between atoms: _333  and  _335
REMARK  136  A    between atoms: _335  and  _336
REMARK  137  A    between atoms: _335  and  _338
REMARK  138  A    between atoms: _338  and  _339
REMARK  139  A    between atoms: _339  and  _340
REMARK  140  A    between atoms: _340  and  _341
REMARK  141  A    between atoms: _341  and  _342
REMARK  142  A    between atoms: _346  and  _348
REMARK  143  A    between atoms: _348  and  _349
REMARK  144  A    between atoms: _348  and  _351
REMARK  145  A    between atoms: _351  and  _352
REMARK  146  A    between atoms: _355  and  _357
REMARK  147  A    between atoms: _357  and  _358
REMARK  148  A    between atoms: _357  and  _360
REMARK  149  A    between atoms: _363  and  _365
REMARK  150  A    between atoms: _365  and  _366
REMARK  151  A    between atoms: _365  and  _368
REMARK  152  A    between atoms: _368  and  _369
REMARK  153  A    between atoms: _375  and  _377
REMARK  154  A    between atoms: _377  and  _378
REMARK  155  A    between atoms: _377  and  _380
REMARK  156  A    between atoms: _380  and  _381
REMARK  157  A    between atoms: _386  and  _387
REMARK  158  A    between atoms: _389  and  _391
REMARK  159  A    between atoms: _391  and  _392
REMARK  160  A    between atoms: _391  and  _394
REMARK  161  A    between atoms: _394  and  _395
REMARK  162  A    between atoms: _398  and  _400
REMARK  163  A    between atoms: _400  and  _401
REMARK  164  A    between atoms: _400  and  _403
REMARK  165  A    between atoms: _403  and  _404
REMARK  166  A    between atoms: _407  and  _409
REMARK  167  A    between atoms: _409  and  _410
REMARK  168  A    between atoms: _409  and  _412
REMARK  169  A    between atoms: _414  and  _416
REMARK  170  A    between atoms: _416  and  _417
REMARK  171  A    between atoms: _416  and  _419
REMARK  172  A    between atoms: _419  and  _420
REMARK  173  A    between atoms: _423  and  _425
REMARK  174  A    between atoms: _425  and  _426
REMARK  175  A    between atoms: _425  and  _428
REMARK  176  A    between atoms: _428  and  _429
REMARK  177  A    between atoms: _432  and  _434
REMARK  178  A    between atoms: _434  and  _435
REMARK  179  A    between atoms: _437  and  _439
REMARK  180  A    between atoms: _439  and  _440
REMARK  181  A    between atoms: _439  and  _442
REMARK  182  A    between atoms: _442  and  _443
REMARK  183  A    between atoms: _443  and  _444
REMARK  184  A    between atoms: _447  and  _449
REMARK  185  A    between atoms: _449  and  _450
REMARK  186  A    between atoms: _449  and  _452
REMARK  187  A    between atoms: _452  and  _453
REMARK  188  A    between atoms: _455  and  _457
REMARK  189  A    between atoms: _457  and  _458
REMARK  190  A    between atoms: _457  and  _460
REMARK  191  A    between atoms: _460  and  _461
REMARK  192  A    between atoms: _461  and  _462
REMARK  193  A    between atoms: _462  and  _463
REMARK  194  A    between atoms: _472  and  _474
REMARK  195  A    between atoms: _474  and  _475
REMARK  196  A    between atoms: _474  and  _477
REMARK  197  A    between atoms: _477  and  _478
REMARK  198  A    between atoms: _481  and  _483
REMARK  199  A    between atoms: _483  and  _484
REMARK  200  A    between atoms: _483  and  _486
REMARK  201  A    between atoms: _486  and  _487
REMARK  202  A    between atoms: _490  and  _492
REMARK  203  A    between atoms: _492  and  _493
REMARK  204  A    between atoms: _492  and  _495
REMARK  205  A    between atoms: _495  and  _496
REMARK  206  A    between atoms: _496  and  _497
REMARK  207  A    between atoms: _497  and  _498
REMARK  208  A    between atoms: _507  and  _509
REMARK  209  A    between atoms: _509  and  _510
REMARK  210  A    between atoms: _509  and  _512
REMARK  211  A    between atoms: _515  and  _517
REMARK  212  A    between atoms: _517  and  _518
REMARK  213  A    between atoms: _517  and  _520
REMARK  214  A    between atoms: _520  and  _521
REMARK  215  A    between atoms: _524  and  _526
REMARK  216  A    between atoms: _526  and  _527
REMARK  217  A    between atoms: _526  and  _529
REMARK  218  A    between atoms: _529  and  _530
REMARK  219  A    between atoms: _530  and  _531
REMARK  220  A    between atoms: _531  and  _532
REMARK  221  A    between atoms: _532  and  _533
REMARK  222  A    between atoms: _537  and  _539
REMARK  223  A    between atoms: _539  and  _540
REMARK  224  A    between atoms: _539  and  _542
REMARK  225  A    between atoms: _542  and  _543
REMARK  226  A    between atoms: _543  and  _544
REMARK  227  A    between atoms: _546  and  _548
REMARK  228  A    between atoms: _548  and  _549
REMARK  229  A    between atoms: _548  and  _551
REMARK  230  A    between atoms: _554  and  _556
REMARK  231  A    between atoms: _556  and  _557
REMARK  232  A    between atoms: _556  and  _559
REMARK  233  A    between atoms: _559  and  _560
REMARK  234  A    between atoms: _570  and  _572
REMARK  235  A    between atoms: _572  and  _573
REMARK  236  A    between atoms: _572  and  _575
REMARK  237  A    between atoms: _575  and  _576
REMARK  238  A    between atoms: _576  and  _577
REMARK  239  A    between atoms: _577  and  _578
REMARK  240  A    between atoms: _578  and  _579
REMARK  241  A    between atoms: _583  and  _585
REMARK  242  A    between atoms: _585  and  _586
REMARK  243  A    between atoms: _585  and  _588
REMARK  244  A    between atoms: _588  and  _589
REMARK  245  A    between atoms: _592  and  _594
REMARK  246  A    between atoms: _594  and  _595
REMARK  247  A    between atoms: _594  and  _597
REMARK  248  A    between atoms: _597  and  _598
REMARK  249  A    between atoms: _603  and  _604
REMARK                            x       y       z     vdW  Elec       q    Type
REMARK                         _______ _______ _______ _____ _____    ______ ____
ROOT
ATOM      1  O   HOH     1       1.306   1.791  40.127  0.00  0.00    +0.000 OA
ENDROOT
TORSDOF 0
REMARK  Name = ../refined-set-2016/3p8z/3p8z_pocket.pdb
REMARK  249 active torsions:
REMARK  status: ('A' for Active; 'I' for Inactive)
REMARK    1  A    between atoms: _1  and  _3
REMARK    2  A    between atoms: _3  and  _4
REMARK    3  A    between atoms: _7  and  _9
REMARK    4  A    between atoms: _9  and  _10
REMARK    5  A    between atoms: _9  and  _12
REMARK    6  A    between atoms: _15  and  _17
REMARK    7  A    between atoms: _17  and  _18
REMARK    8  A    between atoms: _17  and  _20
REMARK    9  A    between atoms: _20  and  _21
REMARK   10  A    between atoms: _23  and  _25
REMARK   11  A    between atoms: _25  and  _26
REMARK   12  A    between atoms: _25  and  _28
REMARK   13  A    between atoms: _28  and  _29
REMARK   14  A    between atoms: _29  and  _30
REMARK   15  A    between atoms: _30  and  _31
REMARK   16  A    between atoms: _40  and  _42
REMARK   17  A    between atoms: _42  and  _43
REMARK   18  A    between atoms: _45  and  _47
REMARK   19  A    between atoms: _47  and  _48
REMARK   20  A    between atoms: _47  and  _50
REMARK   21  A    between atoms: _50  and  _51
REMARK   22  A    between atoms: _53  and  _55
REMARK   23  A    between atoms: _55  and  _56
REMARK   24  A    between atoms: _59  and  _61
REMARK   25  A    between atoms: _61  and  _62
REMARK   26  A    between atoms: _61  and  _64
REMARK   27  A    between atoms: _64  and  _65
REMARK   28  A    between atoms: _65  and  _66
REMARK   29  A    between atoms: _66  and  _67
REMARK   30  A    between atoms: _67  and  _68
REMARK   31  A    between atoms: _72  and  _74
REMARK   32  A    between atoms: _74  and  _75
REMARK   33  A    between atoms: _74  and  _77
REMARK   34  A    between atoms: _77  and  _78
REMARK   35  A    between atoms: _81  and  _83
REMARK   36  A    between atoms: _83  and  _84
REMARK   37  A    between atoms: _83  and  _86
REMARK   38  A    between atoms: _86  and  _87
REMARK   39  A    between atoms: _87  and  _88
REMARK   40  A    between atoms: _93  and  _95
REMARK   41  A    between atoms: _95  and  _96
REMARK   42  A    between atoms: _95  and  _98
REMARK   43  A    between atoms: _98  and  _99
REMARK   44  A    between atoms: _102  and  _104
REMARK   45  A    between atoms: _104  and  _105
REMARK   46  A    between atoms: _104  and  _107
REMARK   47  A    between atoms: _107  and  _108
REMARK   48  A    between atoms: _111  and  _113
REMARK   49  A    between atoms: _113  and  _114
REMARK   50  A    between atoms: _116  and  _118
REMARK   51  A    between atoms: _118  and  _119
REMARK   52  A    between atoms: _118  and  _121
REMARK   53  A    between atoms: _123  and  _125
REMARK   54  A    between atoms: _125  and  _126
REMARK   55  A    between atoms: _128  and  _130
REMARK   56  A    between atoms: _130  and  _131
REMARK   57  A    between atoms: _130  and  _133
REMARK   58  A    between atoms: _133  and  _134
REMARK   59  A    between atoms: _134  and  _135
REMARK   60  A    between atoms: _135  and  _136
REMARK   61  A    between atoms: _145  and  _147
REMARK   62  A    between atoms: _147  and  _148
REMARK   63  A    between atoms: _150  and  _152
REMARK   64  A    between atoms: _152  and  _153
REMARK   65  A    between atoms: _155  and  _157
REMARK   66  A    between atoms: _157  and  _158
REMARK   67  A    between atoms: _157  and  _160
REMARK   68  A    between atoms: _160  and  _161
REMARK   69  A    between atoms: _171  and  _173
REMARK   70  A    between atoms: _173  and  _174
REMARK   71  A    between atoms: _173  and  _176
REMARK   72  A    between atoms: _176  and  _177
REMARK   73  A    between atoms: _179  and  _181
REMARK   74  A    between atoms: _181  and  _182
REMARK   75  A    between atoms: _181  and  _184
REMARK   76  A    between atoms: _184  and  _185
REMARK   77  A    between atoms: _190  and  _191
REMARK   78  A    between atoms: _193  and  _195
REMARK   79  A    between atoms: _195  and  _196
REMARK   80  A    between atoms: _195  and  _198
REMARK   81  A    between atoms: _198  and  _199
REMARK   82  A    between atoms: _204  and  _205
REMARK   83  A    between atoms: _207  and  _209
REMARK   84  A    between atoms: _209  and  _210
REMARK   85  A    between atoms: _209  and  _212
REMARK   86  A    between atoms: _212  and  _213
REMARK   87  A    between atoms: _218  and  _219
REMARK   88  A    between atoms: _221  and  _223
REMARK   89  A    between atoms: _223  and  _224
REMARK   90  A    between atoms: _223  and  _226
REMARK   91  A    between atoms: _226  and  _227
REMARK   92  A    between atoms: _230  and  _232
REMARK   93  A    between atoms: _232  and  _233
REMARK   94  A    between atoms: _232  and  _235
REMARK   95  A    between atoms: _235  and  _236
REMARK   96  A    between atoms: _236  and  _237
REMARK   97  A    between atoms: _237  and  _238
REMARK   98  A    between atoms: _238  and  _239
REMARK   99  A    between atoms: _243  and  _245
REMARK  100  A    between atoms: _245  and  _246
REMARK  101  A    between atoms: _248  and  _250
REMARK  102  A    between atoms: _250  and  _251
REMARK  103  A    between atoms: _254  and  _255
REMARK  104  A    between atoms: _260  and  _262
REMARK  105  A    between atoms: _262  and  _263
REMARK  106  A    between atoms: _265  and  _267
REMARK  107  A    between atoms: _267  and  _268
REMARK  108  A    between atoms: _267  and  _270
REMARK  109  A    between atoms: _270  and  _271
REMARK  110  A    between atoms: _276  and  _278
REMARK  111  A    between atoms: _278  and  _279
REMARK  112  A    between atoms: _278  and  _281
REMARK  113  A    between atoms: _281  and  _282
REMARK  114  A    between atoms: _282  and  _283
REMARK  115  A    between atoms: _286  and  _288
REMARK  116  A    between atoms: _288  and  _289
REMARK  117  A    between atoms: _288  and  _291
REMARK  118  A    between atoms: _291  and  _292
REMARK  119  A    between atoms: _292  and  _293
REMARK  120  A    between atoms: _297  and  _298
REMARK  121  A    between atoms: _303  and  _305
REMARK  122  A    between atoms: _305  and  _306
REMARK  123  A    between atoms: _305  and  _308
REMARK  124  A    between atoms: _311  and  _313
REMARK  125  A    between atoms: _313  and  _314
REMARK  126  A    between atoms: _313  and  _316
REMARK  127  A    between atoms: _316  and  _317
REMARK  128  A    between atoms: _317  and  _318
REMARK  129  A    between atoms: _320  and  _322
REMARK  130  A    between atoms: _322  and  _323
REMARK  131  A    between atoms: _322  and  _325
REMARK  132  A    between atoms: _325  and  _326
REMARK  133  A    between atoms: _328  and  _330
REMARK  134  A    between atoms: _330  and  _331
REMARK  135  A    between atoms: _333  and  _335
REMARK  136  A    between atoms: _335  and  _336
REMARK  137  A    between atoms: _335  and  _338
REMARK  138  A    between atoms: _338  and  _339
REMARK  139  A    between atoms: _339  and  _340
REMARK  140  A    between atoms: _340  and  _341
REMARK  141  A    between atoms: _341  and  _342
REMARK  142  A    between atoms: _346  and  _348
REMARK  143  A    between atoms: _348  and  _349
REMARK  144  A    between atoms: _348  and  _351
REMARK  145  A    between atoms: _351  and  _352
REMARK  146  A    between atoms: _355  and  _357
REMARK  147  A    between atoms: _357  and  _358
REMARK  148  A    between atoms: _357  and  _360
REMARK  149  A    between atoms: _363  and  _365
REMARK  150  A    between atoms: _365  and  _366
REMARK  151  A    between atoms: _365  and  _368
REMARK  152  A    between atoms: _368  and  _369
REMARK  153  A    between atoms: _375  and  _377
REMARK  154  A    between atoms: _377  and  _378
REMARK  155  A    between atoms: _377  and  _380
REMARK  156  A    between atoms: _380  and  _381
REMARK  157  A    between atoms: _386  and  _387
REMARK  158  A    between atoms: _389  and  _391
REMARK  159  A    between atoms: _391  and  _392
REMARK  160  A    between atoms: _391  and  _394
REMARK  161  A    between atoms: _394  and  _395
REMARK  162  A    between atoms: _398  and  _400
REMARK  163  A    between atoms: _400  and  _401
REMARK  164  A    between atoms: _400  and  _403
REMARK  165  A    between atoms: _403  and  _404
REMARK  166  A    between atoms: _407  and  _409
REMARK  167  A    between atoms: _409  and  _410
REMARK  168  A    between atoms: _409  and  _412
REMARK  169  A    between atoms: _414  and  _416
REMARK  170  A    between atoms: _416  and  _417
REMARK  171  A    between atoms: _416  and  _419
REMARK  172  A    between atoms: _419  and  _420
REMARK  173  A    between atoms: _423  and  _425
REMARK  174  A    between atoms: _425  and  _426
REMARK  175  A    between atoms: _425  and  _428
REMARK  176  A    between atoms: _428  and  _429
REMARK  177  A    between atoms: _432  and  _434
REMARK  178  A    between atoms: _434  and  _435
REMARK  179  A    between atoms: _437  and  _439
REMARK  180  A    between atoms: _439  and  _440
REMARK  181  A    between atoms: _439  and  _442
REMARK  182  A    between atoms: _442  and  _443
REMARK  183  A    between atoms: _443  and  _444
REMARK  184  A    between atoms: _447  and  _449
REMARK  185  A    between atoms: _449  and  _450
REMARK  186  A    between atoms: _449  and  _452
REMARK  187  A    between atoms: _452  and  _453
REMARK  188  A    between atoms: _455  and  _457
REMARK  189  A    between atoms: _457  and  _458
REMARK  190  A    between atoms: _457  and  _460
REMARK  191  A    between atoms: _460  and  _461
REMARK  192  A    between atoms: _461  and  _462
REMARK  193  A    between atoms: _462  and  _463
REMARK  194  A    between atoms: _472  and  _474
REMARK  195  A    between atoms: _474  and  _475
REMARK  196  A    between atoms: _474  and  _477
REMARK  197  A    between atoms: _477  and  _478
REMARK  198  A    between atoms: _481  and  _483
REMARK  199  A    between atoms: _483  and  _484
REMARK  200  A    between atoms: _483  and  _486
REMARK  201  A    between atoms: _486  and  _487
REMARK  202  A    between atoms: _490  and  _492
REMARK  203  A    between atoms: _492  and  _493
REMARK  204  A    between atoms: _492  and  _495
REMARK  205  A    between atoms: _495  and  _496
REMARK  206  A    between atoms: _496  and  _497
REMARK  207  A    between atoms: _497  and  _498
REMARK  208  A    between atoms: _507  and  _509
REMARK  209  A    between atoms: _509  and  _510
REMARK  210  A    between atoms: _509  and  _512
REMARK  211  A    between atoms: _515  and  _517
REMARK  212  A    between atoms: _517  and  _518
REMARK  213  A    between atoms: _517  and  _520
REMARK  214  A    between atoms: _520  and  _521
REMARK  215  A    between atoms: _524  and  _526
REMARK  216  A    between atoms: _526  and  _527
REMARK  217  A    between atoms: _526  and  _529
REMARK  218  A    between atoms: _529  and  _530
REMARK  219  A    between atoms: _530  and  _531
REMARK  220  A    between atoms: _531  and  _532
REMARK  221  A    between atoms: _532  and  _533
REMARK  222  A    between atoms: _537  and  _539
REMARK  223  A    between atoms: _539  and  _540
REMARK  224  A    between atoms: _539  and  _542
REMARK  225  A    between atoms: _542  and  _543
REMARK  226  A    between atoms: _543  and  _544
REMARK  227  A    between atoms: _546  and  _548
REMARK  228  A    between atoms: _548  and  _549
REMARK  229  A    between atoms: _548  and  _551
REMARK  230  A    between atoms: _554  and  _556
REMARK  231  A    between atoms: _556  and  _557
REMARK  232  A    between atoms: _556  and  _559
REMARK  233  A    between atoms: _559  and  _560
REMARK  234  A    between atoms: _570  and  _572
REMARK  235  A    between atoms: _572  and  _573
REMARK  236  A    between atoms: _572  and  _575
REMARK  237  A    between atoms: _575  and  _576
REMARK  238  A    between atoms: _576  and  _577
REMARK  239  A    between atoms: _577  and  _578
REMARK  240  A    between atoms: _578  and  _579
REMARK  241  A    between atoms: _583  and  _585
REMARK  242  A    between atoms: _585  and  _586
REMARK  243  A    between atoms: _585  and  _588
REMARK  244  A    between atoms: _588  and  _589
REMARK  245  A    between atoms: _592  and  _594
REMARK  246  A    between atoms: _594  and  _595
REMARK  247  A    between atoms: _594  and  _597
REMARK  248  A    between atoms: _597  and  _598
REMARK  249  A    between atoms: _603  and  _604
REMARK                            x       y       z     vdW  Elec       q    Type
REMARK                         _______ _______ _______ _____ _____    ______ ____
ROOT
ATOM      1  O   HOH     1       8.491   0.185  29.083  0.00  0.00    +0.000 OA
ENDROOT
TORSDOF 0
REMARK  Name = ../refined-set-2016/3p8z/3p8z_pocket.pdb
REMARK  249 active torsions:
REMARK  status: ('A' for Active; 'I' for Inactive)
REMARK    1  A    between atoms: _1  and  _3
REMARK    2  A    between atoms: _3  and  _4
REMARK    3  A    between atoms: _7  and  _9
REMARK    4  A    between atoms: _9  and  _10
REMARK    5  A    between atoms: _9  and  _12
REMARK    6  A    between atoms: _15  and  _17
REMARK    7  A    between atoms: _17  and  _18
REMARK    8  A    between atoms: _17  and  _20
REMARK    9  A    between atoms: _20  and  _21
REMARK   10  A    between atoms: _23  and  _25
REMARK   11  A    between atoms: _25  and  _26
REMARK   12  A    between atoms: _25  and  _28
REMARK   13  A    between atoms: _28  and  _29
REMARK   14  A    between atoms: _29  and  _30
REMARK   15  A    between atoms: _30  and  _31
REMARK   16  A    between atoms: _40  and  _42
REMARK   17  A    between atoms: _42  and  _43
REMARK   18  A    between atoms: _45  and  _47
REMARK   19  A    between atoms: _47  and  _48
REMARK   20  A    between atoms: _47  and  _50
REMARK   21  A    between atoms: _50  and  _51
REMARK   22  A    between atoms: _53  and  _55
REMARK   23  A    between atoms: _55  and  _56
REMARK   24  A    between atoms: _59  and  _61
REMARK   25  A    between atoms: _61  and  _62
REMARK   26  A    between atoms: _61  and  _64
REMARK   27  A    between atoms: _64  and  _65
REMARK   28  A    between atoms: _65  and  _66
REMARK   29  A    between atoms: _66  and  _67
REMARK   30  A    between atoms: _67  and  _68
REMARK   31  A    between atoms: _72  and  _74
REMARK   32  A    between atoms: _74  and  _75
REMARK   33  A    between atoms: _74  and  _77
REMARK   34  A    between atoms: _77  and  _78
REMARK   35  A    between atoms: _81  and  _83
REMARK   36  A    between atoms: _83  and  _84
REMARK   37  A    between atoms: _83  and  _86
REMARK   38  A    between atoms: _86  and  _87
REMARK   39  A    between atoms: _87  and  _88
REMARK   40  A    between atoms: _93  and  _95
REMARK   41  A    between atoms: _95  and  _96
REMARK   42  A    between atoms: _95  and  _98
REMARK   43  A    between atoms: _98  and  _99
REMARK   44  A    between atoms: _102  and  _104
REMARK   45  A    between atoms: _104  and  _105
REMARK   46  A    between atoms: _104  and  _107
REMARK   47  A    between atoms: _107  and  _108
REMARK   48  A    between atoms: _111  and  _113
REMARK   49  A    between atoms: _113  and  _114
REMARK   50  A    between atoms: _116  and  _118
REMARK   51  A    between atoms: _118  and  _119
REMARK   52  A    between atoms: _118  and  _121
REMARK   53  A    between atoms: _123  and  _125
REMARK   54  A    between atoms: _125  and  _126
REMARK   55  A    between atoms: _128  and  _130
REMARK   56  A    between atoms: _130  and  _131
REMARK   57  A    between atoms: _130  and  _133
REMARK   58  A    between atoms: _133  and  _134
REMARK   59  A    between atoms: _134  and  _135
REMARK   60  A    between atoms: _135  and  _136
REMARK   61  A    between atoms: _145  and  _147
REMARK   62  A    between atoms: _147  and  _148
REMARK   63  A    between atoms: _150  and  _152
REMARK   64  A    between atoms: _152  and  _153
REMARK   65  A    between atoms: _155  and  _157
REMARK   66  A    between atoms: _157  and  _158
REMARK   67  A    between atoms: _157  and  _160
REMARK   68  A    between atoms: _160  and  _161
REMARK   69  A    between atoms: _171  and  _173
REMARK   70  A    between atoms: _173  and  _174
REMARK   71  A    between atoms: _173  and  _176
REMARK   72  A    between atoms: _176  and  _177
REMARK   73  A    between atoms: _179  and  _181
REMARK   74  A    between atoms: _181  and  _182
REMARK   75  A    between atoms: _181  and  _184
REMARK   76  A    between atoms: _184  and  _185
REMARK   77  A    between atoms: _190  and  _191
REMARK   78  A    between atoms: _193  and  _195
REMARK   79  A    between atoms: _195  and  _196
REMARK   80  A    between atoms: _195  and  _198
REMARK   81  A    between atoms: _198  and  _199
REMARK   82  A    between atoms: _204  and  _205
REMARK   83  A    between atoms: _207  and  _209
REMARK   84  A    between atoms: _209  and  _210
REMARK   85  A    between atoms: _209  and  _212
REMARK   86  A    between atoms: _212  and  _213
REMARK   87  A    between atoms: _218  and  _219
REMARK   88  A    between atoms: _221  and  _223
REMARK   89  A    between atoms: _223  and  _224
REMARK   90  A    between atoms: _223  and  _226
REMARK   91  A    between atoms: _226  and  _227
REMARK   92  A    between atoms: _230  and  _232
REMARK   93  A    between atoms: _232  and  _233
REMARK   94  A    between atoms: _232  and  _235
REMARK   95  A    between atoms: _235  and  _236
REMARK   96  A    between atoms: _236  and  _237
REMARK   97  A    between atoms: _237  and  _238
REMARK   98  A    between atoms: _238  and  _239
REMARK   99  A    between atoms: _243  and  _245
REMARK  100  A    between atoms: _245  and  _246
REMARK  101  A    between atoms: _248  and  _250
REMARK  102  A    between atoms: _250  and  _251
REMARK  103  A    between atoms: _254  and  _255
REMARK  104  A    between atoms: _260  and  _262
REMARK  105  A    between atoms: _262  and  _263
REMARK  106  A    between atoms: _265  and  _267
REMARK  107  A    between atoms: _267  and  _268
REMARK  108  A    between atoms: _267  and  _270
REMARK  109  A    between atoms: _270  and  _271
REMARK  110  A    between atoms: _276  and  _278
REMARK  111  A    between atoms: _278  and  _279
REMARK  112  A    between atoms: _278  and  _281
REMARK  113  A    between atoms: _281  and  _282
REMARK  114  A    between atoms: _282  and  _283
REMARK  115  A    between atoms: _286  and  _288
REMARK  116  A    between atoms: _288  and  _289
REMARK  117  A    between atoms: _288  and  _291
REMARK  118  A    between atoms: _291  and  _292
REMARK  119  A    between atoms: _292  and  _293
REMARK  120  A    between atoms: _297  and  _298
REMARK  121  A    between atoms: _303  and  _305
REMARK  122  A    between atoms: _305  and  _306
REMARK  123  A    between atoms: _305  and  _308
REMARK  124  A    between atoms: _311  and  _313
REMARK  125  A    between atoms: _313  and  _314
REMARK  126  A    between atoms: _313  and  _316
REMARK  127  A    between atoms: _316  and  _317
REMARK  128  A    between atoms: _317  and  _318
REMARK  129  A    between atoms: _320  and  _322
REMARK  130  A    between atoms: _322  and  _323
REMARK  131  A    between atoms: _322  and  _325
REMARK  132  A    between atoms: _325  and  _326
REMARK  133  A    between atoms: _328  and  _330
REMARK  134  A    between atoms: _330  and  _331
REMARK  135  A    between atoms: _333  and  _335
REMARK  136  A    between atoms: _335  and  _336
REMARK  137  A    between atoms: _335  and  _338
REMARK  138  A    between atoms: _338  and  _339
REMARK  139  A    between atoms: _339  and  _340
REMARK  140  A    between atoms: _340  and  _341
REMARK  141  A    between atoms: _341  and  _342
REMARK  142  A    between atoms: _346  and  _348
REMARK  143  A    between atoms: _348  and  _349
REMARK  144  A    between atoms: _348  and  _351
REMARK  145  A    between atoms: _351  and  _352
REMARK  146  A    between atoms: _355  and  _357
REMARK  147  A    between atoms: _357  and  _358
REMARK  148  A    between atoms: _357  and  _360
REMARK  149  A    between atoms: _363  and  _365
REMARK  150  A    between atoms: _365  and  _366
REMARK  151  A    between atoms: _365  and  _368
REMARK  152  A    between atoms: _368  and  _369
REMARK  153  A    between atoms: _375  and  _377
REMARK  154  A    between atoms: _377  and  _378
REMARK  155  A    between atoms: _377  and  _380
REMARK  156  A    between atoms: _380  and  _381
REMARK  157  A    between atoms: _386  and  _387
REMARK  158  A    between atoms: _389  and  _391
REMARK  159  A    between atoms: _391  and  _392
REMARK  160  A    between atoms: _391  and  _394
REMARK  161  A    between atoms: _394  and  _395
REMARK  162  A    between atoms: _398  and  _400
REMARK  163  A    between atoms: _400  and  _401
REMARK  164  A    between atoms: _400  and  _403
REMARK  165  A    between atoms: _403  and  _404
REMARK  166  A    between atoms: _407  and  _409
REMARK  167  A    between atoms: _409  and  _410
REMARK  168  A    between atoms: _409  and  _412
REMARK  169  A    between atoms: _414  and  _416
REMARK  170  A    between atoms: _416  and  _417
REMARK  171  A    between atoms: _416  and  _419
REMARK  172  A    between atoms: _419  and  _420
REMARK  173  A    between atoms: _423  and  _425
REMARK  174  A    between atoms: _425  and  _426
REMARK  175  A    between atoms: _425  and  _428
REMARK  176  A    between atoms: _428  and  _429
REMARK  177  A    between atoms: _432  and  _434
REMARK  178  A    between atoms: _434  and  _435
REMARK  179  A    between atoms: _437  and  _439
REMARK  180  A    between atoms: _439  and  _440
REMARK  181  A    between atoms: _439  and  _442
REMARK  182  A    between atoms: _442  and  _443
REMARK  183  A    between atoms: _443  and  _444
REMARK  184  A    between atoms: _447  and  _449
REMARK  185  A    between atoms: _449  and  _450
REMARK  186  A    between atoms: _449  and  _452
REMARK  187  A    between atoms: _452  and  _453
REMARK  188  A    between atoms: _455  and  _457
REMARK  189  A    between atoms: _457  and  _458
REMARK  190  A    between atoms: _457  and  _460
REMARK  191  A    between atoms: _460  and  _461
REMARK  192  A    between atoms: _461  and  _462
REMARK  193  A    between atoms: _462  and  _463
REMARK  194  A    between atoms: _472  and  _474
REMARK  195  A    between atoms: _474  and  _475
REMARK  196  A    between atoms: _474  and  _477
REMARK  197  A    between atoms: _477  and  _478
REMARK  198  A    between atoms: _481  and  _483
REMARK  199  A    between atoms: _483  and  _484
REMARK  200  A    between atoms: _483  and  _486
REMARK  201  A    between atoms: _486  and  _487
REMARK  202  A    between atoms: _490  and  _492
REMARK  203  A    between atoms: _492  and  _493
REMARK  204  A    between atoms: _492  and  _495
REMARK  205  A    between atoms: _495  and  _496
REMARK  206  A    between atoms: _496  and  _497
REMARK  207  A    between atoms: _497  and  _498
REMARK  208  A    between atoms: _507  and  _509
REMARK  209  A    between atoms: _509  and  _510
REMARK  210  A    between atoms: _509  and  _512
REMARK  211  A    between atoms: _515  and  _517
REMARK  212  A    between atoms: _517  and  _518
REMARK  213  A    between atoms: _517  and  _520
REMARK  214  A    between atoms: _520  and  _521
REMARK  215  A    between atoms: _524  and  _526
REMARK  216  A    between atoms: _526  and  _527
REMARK  217  A    between atoms: _526  and  _529
REMARK  218  A    between atoms: _529  and  _530
REMARK  219  A    between atoms: _530  and  _531
REMARK  220  A    between atoms: _531  and  _532
REMARK  221  A    between atoms: _532  and  _533
REMARK  222  A    between atoms: _537  and  _539
REMARK  223  A    between atoms: _539  and  _540
REMARK  224  A    between atoms: _539  and  _542
REMARK  225  A    between atoms: _542  and  _543
REMARK  226  A    between atoms: _543  and  _544
REMARK  227  A    between atoms: _546  and  _548
REMARK  228  A    between atoms: _548  and  _549
REMARK  229  A    between atoms: _548  and  _551
REMARK  230  A    between atoms: _554  and  _556
REMARK  231  A    between atoms: _556  and  _557
REMARK  232  A    between atoms: _556  and  _559
REMARK  233  A    between atoms: _559  and  _560
REMARK  234  A    between atoms: _570  and  _572
REMARK  235  A    between atoms: _572  and  _573
REMARK  236  A    between atoms: _572  and  _575
REMARK  237  A    between atoms: _575  and  _576
REMARK  238  A    between atoms: _576  and  _577
REMARK  239  A    between atoms: _577  and  _578
REMARK  240  A    between atoms: _578  and  _579
REMARK  241  A    between atoms: _583  and  _585
REMARK  242  A    between atoms: _585  and  _586
REMARK  243  A    between atoms: _585  and  _588
REMARK  244  A    between atoms: _588  and  _589
REMARK  245  A    between atoms: _592  and  _594
REMARK  246  A    between atoms: _594  and  _595
REMARK  247  A    between atoms: _594  and  _597
REMARK  248  A    between atoms: _597  and  _598
REMARK  249  A    between atoms: _603  and  _604
REMARK                            x       y       z     vdW  Elec       q    Type
REMARK                         _______ _______ _______ _____ _____    ______ ____
ROOT
ATOM      1  O   HOH     1      -2.069  -4.520  36.351  0.00  0.00    +0.000 OA
ENDROOT
TORSDOF 0
REMARK  Name = ../refined-set-2016/3p8z/3p8z_pocket.pdb
REMARK  249 active torsions:
REMARK  status: ('A' for Active; 'I' for Inactive)
REMARK    1  A    between atoms: _1  and  _3
REMARK    2  A    between atoms: _3  and  _4
REMARK    3  A    between atoms: _7  and  _9
REMARK    4  A    between atoms: _9  and  _10
REMARK    5  A    between atoms: _9  and  _12
REMARK    6  A    between atoms: _15  and  _17
REMARK    7  A    between atoms: _17  and  _18
REMARK    8  A    between atoms: _17  and  _20
REMARK    9  A    between atoms: _20  and  _21
REMARK   10  A    between atoms: _23  and  _25
REMARK   11  A    between atoms: _25  and  _26
REMARK   12  A    between atoms: _25  and  _28
REMARK   13  A    between atoms: _28  and  _29
REMARK   14  A    between atoms: _29  and  _30
REMARK   15  A    between atoms: _30  and  _31
REMARK   16  A    between atoms: _40  and  _42
REMARK   17  A    between atoms: _42  and  _43
REMARK   18  A    between atoms: _45  and  _47
REMARK   19  A    between atoms: _47  and  _48
REMARK   20  A    between atoms: _47  and  _50
REMARK   21  A    between atoms: _50  and  _51
REMARK   22  A    between atoms: _53  and  _55
REMARK   23  A    between atoms: _55  and  _56
REMARK   24  A    between atoms: _59  and  _61
REMARK   25  A    between atoms: _61  and  _62
REMARK   26  A    between atoms: _61  and  _64
REMARK   27  A    between atoms: _64  and  _65
REMARK   28  A    between atoms: _65  and  _66
REMARK   29  A    between atoms: _66  and  _67
REMARK   30  A    between atoms: _67  and  _68
REMARK   31  A    between atoms: _72  and  _74
REMARK   32  A    between atoms: _74  and  _75
REMARK   33  A    between atoms: _74  and  _77
REMARK   34  A    between atoms: _77  and  _78
REMARK   35  A    between atoms: _81  and  _83
REMARK   36  A    between atoms: _83  and  _84
REMARK   37  A    between atoms: _83  and  _86
REMARK   38  A    between atoms: _86  and  _87
REMARK   39  A    between atoms: _87  and  _88
REMARK   40  A    between atoms: _93  and  _95
REMARK   41  A    between atoms: _95  and  _96
REMARK   42  A    between atoms: _95  and  _98
REMARK   43  A    between atoms: _98  and  _99
REMARK   44  A    between atoms: _102  and  _104
REMARK   45  A    between atoms: _104  and  _105
REMARK   46  A    between atoms: _104  and  _107
REMARK   47  A    between atoms: _107  and  _108
REMARK   48  A    between atoms: _111  and  _113
REMARK   49  A    between atoms: _113  and  _114
REMARK   50  A    between atoms: _116  and  _118
REMARK   51  A    between atoms: _118  and  _119
REMARK   52  A    between atoms: _118  and  _121
REMARK   53  A    between atoms: _123  and  _125
REMARK   54  A    between atoms: _125  and  _126
REMARK   55  A    between atoms: _128  and  _130
REMARK   56  A    between atoms: _130  and  _131
REMARK   57  A    between atoms: _130  and  _133
REMARK   58  A    between atoms: _133  and  _134
REMARK   59  A    between atoms: _134  and  _135
REMARK   60  A    between atoms: _135  and  _136
REMARK   61  A    between atoms: _145  and  _147
REMARK   62  A    between atoms: _147  and  _148
REMARK   63  A    between atoms: _150  and  _152
REMARK   64  A    between atoms: _152  and  _153
REMARK   65  A    between atoms: _155  and  _157
REMARK   66  A    between atoms: _157  and  _158
REMARK   67  A    between atoms: _157  and  _160
REMARK   68  A    between atoms: _160  and  _161
REMARK   69  A    between atoms: _171  and  _173
REMARK   70  A    between atoms: _173  and  _174
REMARK   71  A    between atoms: _173  and  _176
REMARK   72  A    between atoms: _176  and  _177
REMARK   73  A    between atoms: _179  and  _181
REMARK   74  A    between atoms: _181  and  _182
REMARK   75  A    between atoms: _181  and  _184
REMARK   76  A    between atoms: _184  and  _185
REMARK   77  A    between atoms: _190  and  _191
REMARK   78  A    between atoms: _193  and  _195
REMARK   79  A    between atoms: _195  and  _196
REMARK   80  A    between atoms: _195  and  _198
REMARK   81  A    between atoms: _198  and  _199
REMARK   82  A    between atoms: _204  and  _205
REMARK   83  A    between atoms: _207  and  _209
REMARK   84  A    between atoms: _209  and  _210
REMARK   85  A    between atoms: _209  and  _212
REMARK   86  A    between atoms: _212  and  _213
REMARK   87  A    between atoms: _218  and  _219
REMARK   88  A    between atoms: _221  and  _223
REMARK   89  A    between atoms: _223  and  _224
REMARK   90  A    between atoms: _223  and  _226
REMARK   91  A    between atoms: _226  and  _227
REMARK   92  A    between atoms: _230  and  _232
REMARK   93  A    between atoms: _232  and  _233
REMARK   94  A    between atoms: _232  and  _235
REMARK   95  A    between atoms: _235  and  _236
REMARK   96  A    between atoms: _236  and  _237
REMARK   97  A    between atoms: _237  and  _238
REMARK   98  A    between atoms: _238  and  _239
REMARK   99  A    between atoms: _243  and  _245
REMARK  100  A    between atoms: _245  and  _246
REMARK  101  A    between atoms: _248  and  _250
REMARK  102  A    between atoms: _250  and  _251
REMARK  103  A    between atoms: _254  and  _255
REMARK  104  A    between atoms: _260  and  _262
REMARK  105  A    between atoms: _262  and  _263
REMARK  106  A    between atoms: _265  and  _267
REMARK  107  A    between atoms: _267  and  _268
REMARK  108  A    between atoms: _267  and  _270
REMARK  109  A    between atoms: _270  and  _271
REMARK  110  A    between atoms: _276  and  _278
REMARK  111  A    between atoms: _278  and  _279
REMARK  112  A    between atoms: _278  and  _281
REMARK  113  A    between atoms: _281  and  _282
REMARK  114  A    between atoms: _282  and  _283
REMARK  115  A    between atoms: _286  and  _288
REMARK  116  A    between atoms: _288  and  _289
REMARK  117  A    between atoms: _288  and  _291
REMARK  118  A    between atoms: _291  and  _292
REMARK  119  A    between atoms: _292  and  _293
REMARK  120  A    between atoms: _297  and  _298
REMARK  121  A    between atoms: _303  and  _305
REMARK  122  A    between atoms: _305  and  _306
REMARK  123  A    between atoms: _305  and  _308
REMARK  124  A    between atoms: _311  and  _313
REMARK  125  A    between atoms: _313  and  _314
REMARK  126  A    between atoms: _313  and  _316
REMARK  127  A    between atoms: _316  and  _317
REMARK  128  A    between atoms: _317  and  _318
REMARK  129  A    between atoms: _320  and  _322
REMARK  130  A    between atoms: _322  and  _323
REMARK  131  A    between atoms: _322  and  _325
REMARK  132  A    between atoms: _325  and  _326
REMARK  133  A    between atoms: _328  and  _330
REMARK  134  A    between atoms: _330  and  _331
REMARK  135  A    between atoms: _333  and  _335
REMARK  136  A    between atoms: _335  and  _336
REMARK  137  A    between atoms: _335  and  _338
REMARK  138  A    between atoms: _338  and  _339
REMARK  139  A    between atoms: _339  and  _340
REMARK  140  A    between atoms: _340  and  _341
REMARK  141  A    between atoms: _341  and  _342
REMARK  142  A    between atoms: _346  and  _348
REMARK  143  A    between atoms: _348  and  _349
REMARK  144  A    between atoms: _348  and  _351
REMARK  145  A    between atoms: _351  and  _352
REMARK  146  A    between atoms: _355  and  _357
REMARK  147  A    between atoms: _357  and  _358
REMARK  148  A    between atoms: _357  and  _360
REMARK  149  A    between atoms: _363  and  _365
REMARK  150  A    between atoms: _365  and  _366
REMARK  151  A    between atoms: _365  and  _368
REMARK  152  A    between atoms: _368  and  _369
REMARK  153  A    between atoms: _375  and  _377
REMARK  154  A    between atoms: _377  and  _378
REMARK  155  A    between atoms: _377  and  _380
REMARK  156  A    between atoms: _380  and  _381
REMARK  157  A    between atoms: _386  and  _387
REMARK  158  A    between atoms: _389  and  _391
REMARK  159  A    between atoms: _391  and  _392
REMARK  160  A    between atoms: _391  and  _394
REMARK  161  A    between atoms: _394  and  _395
REMARK  162  A    between atoms: _398  and  _400
REMARK  163  A    between atoms: _400  and  _401
REMARK  164  A    between atoms: _400  and  _403
REMARK  165  A    between atoms: _403  and  _404
REMARK  166  A    between atoms: _407  and  _409
REMARK  167  A    between atoms: _409  and  _410
REMARK  168  A    between atoms: _409  and  _412
REMARK  169  A    between atoms: _414  and  _416
REMARK  170  A    between atoms: _416  and  _417
REMARK  171  A    between atoms: _416  and  _419
REMARK  172  A    between atoms: _419  and  _420
REMARK  173  A    between atoms: _423  and  _425
REMARK  174  A    between atoms: _425  and  _426
REMARK  175  A    between atoms: _425  and  _428
REMARK  176  A    between atoms: _428  and  _429
REMARK  177  A    between atoms: _432  and  _434
REMARK  178  A    between atoms: _434  and  _435
REMARK  179  A    between atoms: _437  and  _439
REMARK  180  A    between atoms: _439  and  _440
REMARK  181  A    between atoms: _439  and  _442
REMARK  182  A    between atoms: _442  and  _443
REMARK  183  A    between atoms: _443  and  _444
REMARK  184  A    between atoms: _447  and  _449
REMARK  185  A    between atoms: _449  and  _450
REMARK  186  A    between atoms: _449  and  _452
REMARK  187  A    between atoms: _452  and  _453
REMARK  188  A    between atoms: _455  and  _457
REMARK  189  A    between atoms: _457  and  _458
REMARK  190  A    between atoms: _457  and  _460
REMARK  191  A    between atoms: _460  and  _461
REMARK  192  A    between atoms: _461  and  _462
REMARK  193  A    between atoms: _462  and  _463
REMARK  194  A    between atoms: _472  and  _474
REMARK  195  A    between atoms: _474  and  _475
REMARK  196  A    between atoms: _474  and  _477
REMARK  197  A    between atoms: _477  and  _478
REMARK  198  A    between atoms: _481  and  _483
REMARK  199  A    between atoms: _483  and  _484
REMARK  200  A    between atoms: _483  and  _486
REMARK  201  A    between atoms: _486  and  _487
REMARK  202  A    between atoms: _490  and  _492
REMARK  203  A    between atoms: _492  and  _493
REMARK  204  A    between atoms: _492  and  _495
REMARK  205  A    between atoms: _495  and  _496
REMARK  206  A    between atoms: _496  and  _497
REMARK  207  A    between atoms: _497  and  _498
REMARK  208  A    between atoms: _507  and  _509
REMARK  209  A    between atoms: _509  and  _510
REMARK  210  A    between atoms: _509  and  _512
REMARK  211  A    between atoms: _515  and  _517
REMARK  212  A    between atoms: _517  and  _518
REMARK  213  A    between atoms: _517  and  _520
REMARK  214  A    between atoms: _520  and  _521
REMARK  215  A    between atoms: _524  and  _526
REMARK  216  A    between atoms: _526  and  _527
REMARK  217  A    between atoms: _526  and  _529
REMARK  218  A    between atoms: _529  and  _530
REMARK  219  A    between atoms: _530  and  _531
REMARK  220  A    between atoms: _531  and  _532
REMARK  221  A    between atoms: _532  and  _533
REMARK  222  A    between atoms: _537  and  _539
REMARK  223  A    between atoms: _539  and  _540
REMARK  224  A    between atoms: _539  and  _542
REMARK  225  A    between atoms: _542  and  _543
REMARK  226  A    between atoms: _543  and  _544
REMARK  227  A    between atoms: _546  and  _548
REMARK  228  A    between atoms: _548  and  _549
REMARK  229  A    between atoms: _548  and  _551
REMARK  230  A    between atoms: _554  and  _556
REMARK  231  A    between atoms: _556  and  _557
REMARK  232  A    between atoms: _556  and  _559
REMARK  233  A    between atoms: _559  and  _560
REMARK  234  A    between atoms: _570  and  _572
REMARK  235  A    between atoms: _572  and  _573
REMARK  236  A    between atoms: _572  and  _575
REMARK  237  A    between atoms: _575  and  _576
REMARK  238  A    between atoms: _576  and  _577
REMARK  239  A    between atoms: _577  and  _578
REMARK  240  A    between atoms: _578  and  _579
REMARK  241  A    between atoms: _583  and  _585
REMARK  242  A    between atoms: _585  and  _586
REMARK  243  A    between atoms: _585  and  _588
REMARK  244  A    between atoms: _588  and  _589
REMARK  245  A    between atoms: _592  and  _594
REMARK  246  A    between atoms: _594  and  _595
REMARK  247  A    between atoms: _594  and  _597
REMARK  248  A    between atoms: _597  and  _598
REMARK  249  A    between atoms: _603  and  _604
REMARK                            x       y       z     vdW  Elec       q    Type
REMARK                         _______ _______ _______ _____ _____    ______ ____
ROOT
ATOM      1  O   HOH     1       8.159 -13.809  50.842  0.00  0.00    +0.000 OA
ENDROOT
TORSDOF 0
REMARK  Name = ../refined-set-2016/3p8z/3p8z_pocket.pdb
REMARK  249 active torsions:
REMARK  status: ('A' for Active; 'I' for Inactive)
REMARK    1  A    between atoms: _1  and  _3
REMARK    2  A    between atoms: _3  and  _4
REMARK    3  A    between atoms: _7  and  _9
REMARK    4  A    between atoms: _9  and  _10
REMARK    5  A    between atoms: _9  and  _12
REMARK    6  A    between atoms: _15  and  _17
REMARK    7  A    between atoms: _17  and  _18
REMARK    8  A    between atoms: _17  and  _20
REMARK    9  A    between atoms: _20  and  _21
REMARK   10  A    between atoms: _23  and  _25
REMARK   11  A    between atoms: _25  and  _26
REMARK   12  A    between atoms: _25  and  _28
REMARK   13  A    between atoms: _28  and  _29
REMARK   14  A    between atoms: _29  and  _30
REMARK   15  A    between atoms: _30  and  _31
REMARK   16  A    between atoms: _40  and  _42
REMARK   17  A    between atoms: _42  and  _43
REMARK   18  A    between atoms: _45  and  _47
REMARK   19  A    between atoms: _47  and  _48
REMARK   20  A    between atoms: _47  and  _50
REMARK   21  A    between atoms: _50  and  _51
REMARK   22  A    between atoms: _53  and  _55
REMARK   23  A    between atoms: _55  and  _56
REMARK   24  A    between atoms: _59  and  _61
REMARK   25  A    between atoms: _61  and  _62
REMARK   26  A    between atoms: _61  and  _64
REMARK   27  A    between atoms: _64  and  _65
REMARK   28  A    between atoms: _65  and  _66
REMARK   29  A    between atoms: _66  and  _67
REMARK   30  A    between atoms: _67  and  _68
REMARK   31  A    between atoms: _72  and  _74
REMARK   32  A    between atoms: _74  and  _75
REMARK   33  A    between atoms: _74  and  _77
REMARK   34  A    between atoms: _77  and  _78
REMARK   35  A    between atoms: _81  and  _83
REMARK   36  A    between atoms: _83  and  _84
REMARK   37  A    between atoms: _83  and  _86
REMARK   38  A    between atoms: _86  and  _87
REMARK   39  A    between atoms: _87  and  _88
REMARK   40  A    between atoms: _93  and  _95
REMARK   41  A    between atoms: _95  and  _96
REMARK   42  A    between atoms: _95  and  _98
REMARK   43  A    between atoms: _98  and  _99
REMARK   44  A    between atoms: _102  and  _104
REMARK   45  A    between atoms: _104  and  _105
REMARK   46  A    between atoms: _104  and  _107
REMARK   47  A    between atoms: _107  and  _108
REMARK   48  A    between atoms: _111  and  _113
REMARK   49  A    between atoms: _113  and  _114
REMARK   50  A    between atoms: _116  and  _118
REMARK   51  A    between atoms: _118  and  _119
REMARK   52  A    between atoms: _118  and  _121
REMARK   53  A    between atoms: _123  and  _125
REMARK   54  A    between atoms: _125  and  _126
REMARK   55  A    between atoms: _128  and  _130
REMARK   56  A    between atoms: _130  and  _131
REMARK   57  A    between atoms: _130  and  _133
REMARK   58  A    between atoms: _133  and  _134
REMARK   59  A    between atoms: _134  and  _135
REMARK   60  A    between atoms: _135  and  _136
REMARK   61  A    between atoms: _145  and  _147
REMARK   62  A    between atoms: _147  and  _148
REMARK   63  A    between atoms: _150  and  _152
REMARK   64  A    between atoms: _152  and  _153
REMARK   65  A    between atoms: _155  and  _157
REMARK   66  A    between atoms: _157  and  _158
REMARK   67  A    between atoms: _157  and  _160
REMARK   68  A    between atoms: _160  and  _161
REMARK   69  A    between atoms: _171  and  _173
REMARK   70  A    between atoms: _173  and  _174
REMARK   71  A    between atoms: _173  and  _176
REMARK   72  A    between atoms: _176  and  _177
REMARK   73  A    between atoms: _179  and  _181
REMARK   74  A    between atoms: _181  and  _182
REMARK   75  A    between atoms: _181  and  _184
REMARK   76  A    between atoms: _184  and  _185
REMARK   77  A    between atoms: _190  and  _191
REMARK   78  A    between atoms: _193  and  _195
REMARK   79  A    between atoms: _195  and  _196
REMARK   80  A    between atoms: _195  and  _198
REMARK   81  A    between atoms: _198  and  _199
REMARK   82  A    between atoms: _204  and  _205
REMARK   83  A    between atoms: _207  and  _209
REMARK   84  A    between atoms: _209  and  _210
REMARK   85  A    between atoms: _209  and  _212
REMARK   86  A    between atoms: _212  and  _213
REMARK   87  A    between atoms: _218  and  _219
REMARK   88  A    between atoms: _221  and  _223
REMARK   89  A    between atoms: _223  and  _224
REMARK   90  A    between atoms: _223  and  _226
REMARK   91  A    between atoms: _226  and  _227
REMARK   92  A    between atoms: _230  and  _232
REMARK   93  A    between atoms: _232  and  _233
REMARK   94  A    between atoms: _232  and  _235
REMARK   95  A    between atoms: _235  and  _236
REMARK   96  A    between atoms: _236  and  _237
REMARK   97  A    between atoms: _237  and  _238
REMARK   98  A    between atoms: _238  and  _239
REMARK   99  A    between atoms: _243  and  _245
REMARK  100  A    between atoms: _245  and  _246
REMARK  101  A    between atoms: _248  and  _250
REMARK  102  A    between atoms: _250  and  _251
REMARK  103  A    between atoms: _254  and  _255
REMARK  104  A    between atoms: _260  and  _262
REMARK  105  A    between atoms: _262  and  _263
REMARK  106  A    between atoms: _265  and  _267
REMARK  107  A    between atoms: _267  and  _268
REMARK  108  A    between atoms: _267  and  _270
REMARK  109  A    between atoms: _270  and  _271
REMARK  110  A    between atoms: _276  and  _278
REMARK  111  A    between atoms: _278  and  _279
REMARK  112  A    between atoms: _278  and  _281
REMARK  113  A    between atoms: _281  and  _282
REMARK  114  A    between atoms: _282  and  _283
REMARK  115  A    between atoms: _286  and  _288
REMARK  116  A    between atoms: _288  and  _289
REMARK  117  A    between atoms: _288  and  _291
REMARK  118  A    between atoms: _291  and  _292
REMARK  119  A    between atoms: _292  and  _293
REMARK  120  A    between atoms: _297  and  _298
REMARK  121  A    between atoms: _303  and  _305
REMARK  122  A    between atoms: _305  and  _306
REMARK  123  A    between atoms: _305  and  _308
REMARK  124  A    between atoms: _311  and  _313
REMARK  125  A    between atoms: _313  and  _314
REMARK  126  A    between atoms: _313  and  _316
REMARK  127  A    between atoms: _316  and  _317
REMARK  128  A    between atoms: _317  and  _318
REMARK  129  A    between atoms: _320  and  _322
REMARK  130  A    between atoms: _322  and  _323
REMARK  131  A    between atoms: _322  and  _325
REMARK  132  A    between atoms: _325  and  _326
REMARK  133  A    between atoms: _328  and  _330
REMARK  134  A    between atoms: _330  and  _331
REMARK  135  A    between atoms: _333  and  _335
REMARK  136  A    between atoms: _335  and  _336
REMARK  137  A    between atoms: _335  and  _338
REMARK  138  A    between atoms: _338  and  _339
REMARK  139  A    between atoms: _339  and  _340
REMARK  140  A    between atoms: _340  and  _341
REMARK  141  A    between atoms: _341  and  _342
REMARK  142  A    between atoms: _346  and  _348
REMARK  143  A    between atoms: _348  and  _349
REMARK  144  A    between atoms: _348  and  _351
REMARK  145  A    between atoms: _351  and  _352
REMARK  146  A    between atoms: _355  and  _357
REMARK  147  A    between atoms: _357  and  _358
REMARK  148  A    between atoms: _357  and  _360
REMARK  149  A    between atoms: _363  and  _365
REMARK  150  A    between atoms: _365  and  _366
REMARK  151  A    between atoms: _365  and  _368
REMARK  152  A    between atoms: _368  and  _369
REMARK  153  A    between atoms: _375  and  _377
REMARK  154  A    between atoms: _377  and  _378
REMARK  155  A    between atoms: _377  and  _380
REMARK  156  A    between atoms: _380  and  _381
REMARK  157  A    between atoms: _386  and  _387
REMARK  158  A    between atoms: _389  and  _391
REMARK  159  A    between atoms: _391  and  _392
REMARK  160  A    between atoms: _391  and  _394
REMARK  161  A    between atoms: _394  and  _395
REMARK  162  A    between atoms: _398  and  _400
REMARK  163  A    between atoms: _400  and  _401
REMARK  164  A    between atoms: _400  and  _403
REMARK  165  A    between atoms: _403  and  _404
REMARK  166  A    between atoms: _407  and  _409
REMARK  167  A    between atoms: _409  and  _410
REMARK  168  A    between atoms: _409  and  _412
REMARK  169  A    between atoms: _414  and  _416
REMARK  170  A    between atoms: _416  and  _417
REMARK  171  A    between atoms: _416  and  _419
REMARK  172  A    between atoms: _419  and  _420
REMARK  173  A    between atoms: _423  and  _425
REMARK  174  A    between atoms: _425  and  _426
REMARK  175  A    between atoms: _425  and  _428
REMARK  176  A    between atoms: _428  and  _429
REMARK  177  A    between atoms: _432  and  _434
REMARK  178  A    between atoms: _434  and  _435
REMARK  179  A    between atoms: _437  and  _439
REMARK  180  A    between atoms: _439  and  _440
REMARK  181  A    between atoms: _439  and  _442
REMARK  182  A    between atoms: _442  and  _443
REMARK  183  A    between atoms: _443  and  _444
REMARK  184  A    between atoms: _447  and  _449
REMARK  185  A    between atoms: _449  and  _450
REMARK  186  A    between atoms: _449  and  _452
REMARK  187  A    between atoms: _452  and  _453
REMARK  188  A    between atoms: _455  and  _457
REMARK  189  A    between atoms: _457  and  _458
REMARK  190  A    between atoms: _457  and  _460
REMARK  191  A    between atoms: _460  and  _461
REMARK  192  A    between atoms: _461  and  _462
REMARK  193  A    between atoms: _462  and  _463
REMARK  194  A    between atoms: _472  and  _474
REMARK  195  A    between atoms: _474  and  _475
REMARK  196  A    between atoms: _474  and  _477
REMARK  197  A    between atoms: _477  and  _478
REMARK  198  A    between atoms: _481  and  _483
REMARK  199  A    between atoms: _483  and  _484
REMARK  200  A    between atoms: _483  and  _486
REMARK  201  A    between atoms: _486  and  _487
REMARK  202  A    between atoms: _490  and  _492
REMARK  203  A    between atoms: _492  and  _493
REMARK  204  A    between atoms: _492  and  _495
REMARK  205  A    between atoms: _495  and  _496
REMARK  206  A    between atoms: _496  and  _497
REMARK  207  A    between atoms: _497  and  _498
REMARK  208  A    between atoms: _507  and  _509
REMARK  209  A    between atoms: _509  and  _510
REMARK  210  A    between atoms: _509  and  _512
REMARK  211  A    between atoms: _515  and  _517
REMARK  212  A    between atoms: _517  and  _518
REMARK  213  A    between atoms: _517  and  _520
REMARK  214  A    between atoms: _520  and  _521
REMARK  215  A    between atoms: _524  and  _526
REMARK  216  A    between atoms: _526  and  _527
REMARK  217  A    between atoms: _526  and  _529
REMARK  218  A    between atoms: _529  and  _530
REMARK  219  A    between atoms: _530  and  _531
REMARK  220  A    between atoms: _531  and  _532
REMARK  221  A    between atoms: _532  and  _533
REMARK  222  A    between atoms: _537  and  _539
REMARK  223  A    between atoms: _539  and  _540
REMARK  224  A    between atoms: _539  and  _542
REMARK  225  A    between atoms: _542  and  _543
REMARK  226  A    between atoms: _543  and  _544
REMARK  227  A    between atoms: _546  and  _548
REMARK  228  A    between atoms: _548  and  _549
REMARK  229  A    between atoms: _548  and  _551
REMARK  230  A    between atoms: _554  and  _556
REMARK  231  A    between atoms: _556  and  _557
REMARK  232  A    between atoms: _556  and  _559
REMARK  233  A    between atoms: _559  and  _560
REMARK  234  A    between atoms: _570  and  _572
REMARK  235  A    between atoms: _572  and  _573
REMARK  236  A    between atoms: _572  and  _575
REMARK  237  A    between atoms: _575  and  _576
REMARK  238  A    between atoms: _576  and  _577
REMARK  239  A    between atoms: _577  and  _578
REMARK  240  A    between atoms: _578  and  _579
REMARK  241  A    between atoms: _583  and  _585
REMARK  242  A    between atoms: _585  and  _586
REMARK  243  A    between atoms: _585  and  _588
REMARK  244  A    between atoms: _588  and  _589
REMARK  245  A    between atoms: _592  and  _594
REMARK  246  A    between atoms: _594  and  _595
REMARK  247  A    between atoms: _594  and  _597
REMARK  248  A    between atoms: _597  and  _598
REMARK  249  A    between atoms: _603  and  _604
REMARK                            x       y       z     vdW  Elec       q    Type
REMARK                         _______ _______ _______ _____ _____    ______ ____
ROOT
ATOM      1  O   HOH     1       8.246  -4.475  47.462  0.00  0.00    +0.000 OA
ENDROOT
TORSDOF 0
REMARK  Name = ../refined-set-2016/3p8z/3p8z_pocket.pdb
REMARK  249 active torsions:
REMARK  status: ('A' for Active; 'I' for Inactive)
REMARK    1  A    between atoms: _1  and  _3
REMARK    2  A    between atoms: _3  and  _4
REMARK    3  A    between atoms: _7  and  _9
REMARK    4  A    between atoms: _9  and  _10
REMARK    5  A    between atoms: _9  and  _12
REMARK    6  A    between atoms: _15  and  _17
REMARK    7  A    between atoms: _17  and  _18
REMARK    8  A    between atoms: _17  and  _20
REMARK    9  A    between atoms: _20  and  _21
REMARK   10  A    between atoms: _23  and  _25
REMARK   11  A    between atoms: _25  and  _26
REMARK   12  A    between atoms: _25  and  _28
REMARK   13  A    between atoms: _28  and  _29
REMARK   14  A    between atoms: _29  and  _30
REMARK   15  A    between atoms: _30  and  _31
REMARK   16  A    between atoms: _40  and  _42
REMARK   17  A    between atoms: _42  and  _43
REMARK   18  A    between atoms: _45  and  _47
REMARK   19  A    between atoms: _47  and  _48
REMARK   20  A    between atoms: _47  and  _50
REMARK   21  A    between atoms: _50  and  _51
REMARK   22  A    between atoms: _53  and  _55
REMARK   23  A    between atoms: _55  and  _56
REMARK   24  A    between atoms: _59  and  _61
REMARK   25  A    between atoms: _61  and  _62
REMARK   26  A    between atoms: _61  and  _64
REMARK   27  A    between atoms: _64  and  _65
REMARK   28  A    between atoms: _65  and  _66
REMARK   29  A    between atoms: _66  and  _67
REMARK   30  A    between atoms: _67  and  _68
REMARK   31  A    between atoms: _72  and  _74
REMARK   32  A    between atoms: _74  and  _75
REMARK   33  A    between atoms: _74  and  _77
REMARK   34  A    between atoms: _77  and  _78
REMARK   35  A    between atoms: _81  and  _83
REMARK   36  A    between atoms: _83  and  _84
REMARK   37  A    between atoms: _83  and  _86
REMARK   38  A    between atoms: _86  and  _87
REMARK   39  A    between atoms: _87  and  _88
REMARK   40  A    between atoms: _93  and  _95
REMARK   41  A    between atoms: _95  and  _96
REMARK   42  A    between atoms: _95  and  _98
REMARK   43  A    between atoms: _98  and  _99
REMARK   44  A    between atoms: _102  and  _104
REMARK   45  A    between atoms: _104  and  _105
REMARK   46  A    between atoms: _104  and  _107
REMARK   47  A    between atoms: _107  and  _108
REMARK   48  A    between atoms: _111  and  _113
REMARK   49  A    between atoms: _113  and  _114
REMARK   50  A    between atoms: _116  and  _118
REMARK   51  A    between atoms: _118  and  _119
REMARK   52  A    between atoms: _118  and  _121
REMARK   53  A    between atoms: _123  and  _125
REMARK   54  A    between atoms: _125  and  _126
REMARK   55  A    between atoms: _128  and  _130
REMARK   56  A    between atoms: _130  and  _131
REMARK   57  A    between atoms: _130  and  _133
REMARK   58  A    between atoms: _133  and  _134
REMARK   59  A    between atoms: _134  and  _135
REMARK   60  A    between atoms: _135  and  _136
REMARK   61  A    between atoms: _145  and  _147
REMARK   62  A    between atoms: _147  and  _148
REMARK   63  A    between atoms: _150  and  _152
REMARK   64  A    between atoms: _152  and  _153
REMARK   65  A    between atoms: _155  and  _157
REMARK   66  A    between atoms: _157  and  _158
REMARK   67  A    between atoms: _157  and  _160
REMARK   68  A    between atoms: _160  and  _161
REMARK   69  A    between atoms: _171  and  _173
REMARK   70  A    between atoms: _173  and  _174
REMARK   71  A    between atoms: _173  and  _176
REMARK   72  A    between atoms: _176  and  _177
REMARK   73  A    between atoms: _179  and  _181
REMARK   74  A    between atoms: _181  and  _182
REMARK   75  A    between atoms: _181  and  _184
REMARK   76  A    between atoms: _184  and  _185
REMARK   77  A    between atoms: _190  and  _191
REMARK   78  A    between atoms: _193  and  _195
REMARK   79  A    between atoms: _195  and  _196
REMARK   80  A    between atoms: _195  and  _198
REMARK   81  A    between atoms: _198  and  _199
REMARK   82  A    between atoms: _204  and  _205
REMARK   83  A    between atoms: _207  and  _209
REMARK   84  A    between atoms: _209  and  _210
REMARK   85  A    between atoms: _209  and  _212
REMARK   86  A    between atoms: _212  and  _213
REMARK   87  A    between atoms: _218  and  _219
REMARK   88  A    between atoms: _221  and  _223
REMARK   89  A    between atoms: _223  and  _224
REMARK   90  A    between atoms: _223  and  _226
REMARK   91  A    between atoms: _226  and  _227
REMARK   92  A    between atoms: _230  and  _232
REMARK   93  A    between atoms: _232  and  _233
REMARK   94  A    between atoms: _232  and  _235
REMARK   95  A    between atoms: _235  and  _236
REMARK   96  A    between atoms: _236  and  _237
REMARK   97  A    between atoms: _237  and  _238
REMARK   98  A    between atoms: _238  and  _239
REMARK   99  A    between atoms: _243  and  _245
REMARK  100  A    between atoms: _245  and  _246
REMARK  101  A    between atoms: _248  and  _250
REMARK  102  A    between atoms: _250  and  _251
REMARK  103  A    between atoms: _254  and  _255
REMARK  104  A    between atoms: _260  and  _262
REMARK  105  A    between atoms: _262  and  _263
REMARK  106  A    between atoms: _265  and  _267
REMARK  107  A    between atoms: _267  and  _268
REMARK  108  A    between atoms: _267  and  _270
REMARK  109  A    between atoms: _270  and  _271
REMARK  110  A    between atoms: _276  and  _278
REMARK  111  A    between atoms: _278  and  _279
REMARK  112  A    between atoms: _278  and  _281
REMARK  113  A    between atoms: _281  and  _282
REMARK  114  A    between atoms: _282  and  _283
REMARK  115  A    between atoms: _286  and  _288
REMARK  116  A    between atoms: _288  and  _289
REMARK  117  A    between atoms: _288  and  _291
REMARK  118  A    between atoms: _291  and  _292
REMARK  119  A    between atoms: _292  and  _293
REMARK  120  A    between atoms: _297  and  _298
REMARK  121  A    between atoms: _303  and  _305
REMARK  122  A    between atoms: _305  and  _306
REMARK  123  A    between atoms: _305  and  _308
REMARK  124  A    between atoms: _311  and  _313
REMARK  125  A    between atoms: _313  and  _314
REMARK  126  A    between atoms: _313  and  _316
REMARK  127  A    between atoms: _316  and  _317
REMARK  128  A    between atoms: _317  and  _318
REMARK  129  A    between atoms: _320  and  _322
REMARK  130  A    between atoms: _322  and  _323
REMARK  131  A    between atoms: _322  and  _325
REMARK  132  A    between atoms: _325  and  _326
REMARK  133  A    between atoms: _328  and  _330
REMARK  134  A    between atoms: _330  and  _331
REMARK  135  A    between atoms: _333  and  _335
REMARK  136  A    between atoms: _335  and  _336
REMARK  137  A    between atoms: _335  and  _338
REMARK  138  A    between atoms: _338  and  _339
REMARK  139  A    between atoms: _339  and  _340
REMARK  140  A    between atoms: _340  and  _341
REMARK  141  A    between atoms: _341  and  _342
REMARK  142  A    between atoms: _346  and  _348
REMARK  143  A    between atoms: _348  and  _349
REMARK  144  A    between atoms: _348  and  _351
REMARK  145  A    between atoms: _351  and  _352
REMARK  146  A    between atoms: _355  and  _357
REMARK  147  A    between atoms: _357  and  _358
REMARK  148  A    between atoms: _357  and  _360
REMARK  149  A    between atoms: _363  and  _365
REMARK  150  A    between atoms: _365  and  _366
REMARK  151  A    between atoms: _365  and  _368
REMARK  152  A    between atoms: _368  and  _369
REMARK  153  A    between atoms: _375  and  _377
REMARK  154  A    between atoms: _377  and  _378
REMARK  155  A    between atoms: _377  and  _380
REMARK  156  A    between atoms: _380  and  _381
REMARK  157  A    between atoms: _386  and  _387
REMARK  158  A    between atoms: _389  and  _391
REMARK  159  A    between atoms: _391  and  _392
REMARK  160  A    between atoms: _391  and  _394
REMARK  161  A    between atoms: _394  and  _395
REMARK  162  A    between atoms: _398  and  _400
REMARK  163  A    between atoms: _400  and  _401
REMARK  164  A    between atoms: _400  and  _403
REMARK  165  A    between atoms: _403  and  _404
REMARK  166  A    between atoms: _407  and  _409
REMARK  167  A    between atoms: _409  and  _410
REMARK  168  A    between atoms: _409  and  _412
REMARK  169  A    between atoms: _414  and  _416
REMARK  170  A    between atoms: _416  and  _417
REMARK  171  A    between atoms: _416  and  _419
REMARK  172  A    between atoms: _419  and  _420
REMARK  173  A    between atoms: _423  and  _425
REMARK  174  A    between atoms: _425  and  _426
REMARK  175  A    between atoms: _425  and  _428
REMARK  176  A    between atoms: _428  and  _429
REMARK  177  A    between atoms: _432  and  _434
REMARK  178  A    between atoms: _434  and  _435
REMARK  179  A    between atoms: _437  and  _439
REMARK  180  A    between atoms: _439  and  _440
REMARK  181  A    between atoms: _439  and  _442
REMARK  182  A    between atoms: _442  and  _443
REMARK  183  A    between atoms: _443  and  _444
REMARK  184  A    between atoms: _447  and  _449
REMARK  185  A    between atoms: _449  and  _450
REMARK  186  A    between atoms: _449  and  _452
REMARK  187  A    between atoms: _452  and  _453
REMARK  188  A    between atoms: _455  and  _457
REMARK  189  A    between atoms: _457  and  _458
REMARK  190  A    between atoms: _457  and  _460
REMARK  191  A    between atoms: _460  and  _461
REMARK  192  A    between atoms: _461  and  _462
REMARK  193  A    between atoms: _462  and  _463
REMARK  194  A    between atoms: _472  and  _474
REMARK  195  A    between atoms: _474  and  _475
REMARK  196  A    between atoms: _474  and  _477
REMARK  197  A    between atoms: _477  and  _478
REMARK  198  A    between atoms: _481  and  _483
REMARK  199  A    between atoms: _483  and  _484
REMARK  200  A    between atoms: _483  and  _486
REMARK  201  A    between atoms: _486  and  _487
REMARK  202  A    between atoms: _490  and  _492
REMARK  203  A    between atoms: _492  and  _493
REMARK  204  A    between atoms: _492  and  _495
REMARK  205  A    between atoms: _495  and  _496
REMARK  206  A    between atoms: _496  and  _497
REMARK  207  A    between atoms: _497  and  _498
REMARK  208  A    between atoms: _507  and  _509
REMARK  209  A    between atoms: _509  and  _510
REMARK  210  A    between atoms: _509  and  _512
REMARK  211  A    between atoms: _515  and  _517
REMARK  212  A    between atoms: _517  and  _518
REMARK  213  A    between atoms: _517  and  _520
REMARK  214  A    between atoms: _520  and  _521
REMARK  215  A    between atoms: _524  and  _526
REMARK  216  A    between atoms: _526  and  _527
REMARK  217  A    between atoms: _526  and  _529
REMARK  218  A    between atoms: _529  and  _530
REMARK  219  A    between atoms: _530  and  _531
REMARK  220  A    between atoms: _531  and  _532
REMARK  221  A    between atoms: _532  and  _533
REMARK  222  A    between atoms: _537  and  _539
REMARK  223  A    between atoms: _539  and  _540
REMARK  224  A    between atoms: _539  and  _542
REMARK  225  A    between atoms: _542  and  _543
REMARK  226  A    between atoms: _543  and  _544
REMARK  227  A    between atoms: _546  and  _548
REMARK  228  A    between atoms: _548  and  _549
REMARK  229  A    between atoms: _548  and  _551
REMARK  230  A    between atoms: _554  and  _556
REMARK  231  A    between atoms: _556  and  _557
REMARK  232  A    between atoms: _556  and  _559
REMARK  233  A    between atoms: _559  and  _560
REMARK  234  A    between atoms: _570  and  _572
REMARK  235  A    between atoms: _572  and  _573
REMARK  236  A    between atoms: _572  and  _575
REMARK  237  A    between atoms: _575  and  _576
REMARK  238  A    between atoms: _576  and  _577
REMARK  239  A    between atoms: _577  and  _578
REMARK  240  A    between atoms: _578  and  _579
REMARK  241  A    between atoms: _583  and  _585
REMARK  242  A    between atoms: _585  and  _586
REMARK  243  A    between atoms: _585  and  _588
REMARK  244  A    between atoms: _588  and  _589
REMARK  245  A    between atoms: _592  and  _594
REMARK  246  A    between atoms: _594  and  _595
REMARK  247  A    between atoms: _594  and  _597
REMARK  248  A    between atoms: _597  and  _598
REMARK  249  A    between atoms: _603  and  _604
REMARK                            x       y       z     vdW  Elec       q    Type
REMARK                         _______ _______ _______ _____ _____    ______ ____
ROOT
ATOM      1  O   HOH     1      -2.425  -1.088  45.760  0.00  0.00    +0.000 OA
ENDROOT
TORSDOF 0
REMARK  Name = ../refined-set-2016/3p8z/3p8z_pocket.pdb
REMARK  249 active torsions:
REMARK  status: ('A' for Active; 'I' for Inactive)
REMARK    1  A    between atoms: _1  and  _3
REMARK    2  A    between atoms: _3  and  _4
REMARK    3  A    between atoms: _7  and  _9
REMARK    4  A    between atoms: _9  and  _10
REMARK    5  A    between atoms: _9  and  _12
REMARK    6  A    between atoms: _15  and  _17
REMARK    7  A    between atoms: _17  and  _18
REMARK    8  A    between atoms: _17  and  _20
REMARK    9  A    between atoms: _20  and  _21
REMARK   10  A    between atoms: _23  and  _25
REMARK   11  A    between atoms: _25  and  _26
REMARK   12  A    between atoms: _25  and  _28
REMARK   13  A    between atoms: _28  and  _29
REMARK   14  A    between atoms: _29  and  _30
REMARK   15  A    between atoms: _30  and  _31
REMARK   16  A    between atoms: _40  and  _42
REMARK   17  A    between atoms: _42  and  _43
REMARK   18  A    between atoms: _45  and  _47
REMARK   19  A    between atoms: _47  and  _48
REMARK   20  A    between atoms: _47  and  _50
REMARK   21  A    between atoms: _50  and  _51
REMARK   22  A    between atoms: _53  and  _55
REMARK   23  A    between atoms: _55  and  _56
REMARK   24  A    between atoms: _59  and  _61
REMARK   25  A    between atoms: _61  and  _62
REMARK   26  A    between atoms: _61  and  _64
REMARK   27  A    between atoms: _64  and  _65
REMARK   28  A    between atoms: _65  and  _66
REMARK   29  A    between atoms: _66  and  _67
REMARK   30  A    between atoms: _67  and  _68
REMARK   31  A    between atoms: _72  and  _74
REMARK   32  A    between atoms: _74  and  _75
REMARK   33  A    between atoms: _74  and  _77
REMARK   34  A    between atoms: _77  and  _78
REMARK   35  A    between atoms: _81  and  _83
REMARK   36  A    between atoms: _83  and  _84
REMARK   37  A    between atoms: _83  and  _86
REMARK   38  A    between atoms: _86  and  _87
REMARK   39  A    between atoms: _87  and  _88
REMARK   40  A    between atoms: _93  and  _95
REMARK   41  A    between atoms: _95  and  _96
REMARK   42  A    between atoms: _95  and  _98
REMARK   43  A    between atoms: _98  and  _99
REMARK   44  A    between atoms: _102  and  _104
REMARK   45  A    between atoms: _104  and  _105
REMARK   46  A    between atoms: _104  and  _107
REMARK   47  A    between atoms: _107  and  _108
REMARK   48  A    between atoms: _111  and  _113
REMARK   49  A    between atoms: _113  and  _114
REMARK   50  A    between atoms: _116  and  _118
REMARK   51  A    between atoms: _118  and  _119
REMARK   52  A    between atoms: _118  and  _121
REMARK   53  A    between atoms: _123  and  _125
REMARK   54  A    between atoms: _125  and  _126
REMARK   55  A    between atoms: _128  and  _130
REMARK   56  A    between atoms: _130  and  _131
REMARK   57  A    between atoms: _130  and  _133
REMARK   58  A    between atoms: _133  and  _134
REMARK   59  A    between atoms: _134  and  _135
REMARK   60  A    between atoms: _135  and  _136
REMARK   61  A    between atoms: _145  and  _147
REMARK   62  A    between atoms: _147  and  _148
REMARK   63  A    between atoms: _150  and  _152
REMARK   64  A    between atoms: _152  and  _153
REMARK   65  A    between atoms: _155  and  _157
REMARK   66  A    between atoms: _157  and  _158
REMARK   67  A    between atoms: _157  and  _160
REMARK   68  A    between atoms: _160  and  _161
REMARK   69  A    between atoms: _171  and  _173
REMARK   70  A    between atoms: _173  and  _174
REMARK   71  A    between atoms: _173  and  _176
REMARK   72  A    between atoms: _176  and  _177
REMARK   73  A    between atoms: _179  and  _181
REMARK   74  A    between atoms: _181  and  _182
REMARK   75  A    between atoms: _181  and  _184
REMARK   76  A    between atoms: _184  and  _185
REMARK   77  A    between atoms: _190  and  _191
REMARK   78  A    between atoms: _193  and  _195
REMARK   79  A    between atoms: _195  and  _196
REMARK   80  A    between atoms: _195  and  _198
REMARK   81  A    between atoms: _198  and  _199
REMARK   82  A    between atoms: _204  and  _205
REMARK   83  A    between atoms: _207  and  _209
REMARK   84  A    between atoms: _209  and  _210
REMARK   85  A    between atoms: _209  and  _212
REMARK   86  A    between atoms: _212  and  _213
REMARK   87  A    between atoms: _218  and  _219
REMARK   88  A    between atoms: _221  and  _223
REMARK   89  A    between atoms: _223  and  _224
REMARK   90  A    between atoms: _223  and  _226
REMARK   91  A    between atoms: _226  and  _227
REMARK   92  A    between atoms: _230  and  _232
REMARK   93  A    between atoms: _232  and  _233
REMARK   94  A    between atoms: _232  and  _235
REMARK   95  A    between atoms: _235  and  _236
REMARK   96  A    between atoms: _236  and  _237
REMARK   97  A    between atoms: _237  and  _238
REMARK   98  A    between atoms: _238  and  _239
REMARK   99  A    between atoms: _243  and  _245
REMARK  100  A    between atoms: _245  and  _246
REMARK  101  A    between atoms: _248  and  _250
REMARK  102  A    between atoms: _250  and  _251
REMARK  103  A    between atoms: _254  and  _255
REMARK  104  A    between atoms: _260  and  _262
REMARK  105  A    between atoms: _262  and  _263
REMARK  106  A    between atoms: _265  and  _267
REMARK  107  A    between atoms: _267  and  _268
REMARK  108  A    between atoms: _267  and  _270
REMARK  109  A    between atoms: _270  and  _271
REMARK  110  A    between atoms: _276  and  _278
REMARK  111  A    between atoms: _278  and  _279
REMARK  112  A    between atoms: _278  and  _281
REMARK  113  A    between atoms: _281  and  _282
REMARK  114  A    between atoms: _282  and  _283
REMARK  115  A    between atoms: _286  and  _288
REMARK  116  A    between atoms: _288  and  _289
REMARK  117  A    between atoms: _288  and  _291
REMARK  118  A    between atoms: _291  and  _292
REMARK  119  A    between atoms: _292  and  _293
REMARK  120  A    between atoms: _297  and  _298
REMARK  121  A    between atoms: _303  and  _305
REMARK  122  A    between atoms: _305  and  _306
REMARK  123  A    between atoms: _305  and  _308
REMARK  124  A    between atoms: _311  and  _313
REMARK  125  A    between atoms: _313  and  _314
REMARK  126  A    between atoms: _313  and  _316
REMARK  127  A    between atoms: _316  and  _317
REMARK  128  A    between atoms: _317  and  _318
REMARK  129  A    between atoms: _320  and  _322
REMARK  130  A    between atoms: _322  and  _323
REMARK  131  A    between atoms: _322  and  _325
REMARK  132  A    between atoms: _325  and  _326
REMARK  133  A    between atoms: _328  and  _330
REMARK  134  A    between atoms: _330  and  _331
REMARK  135  A    between atoms: _333  and  _335
REMARK  136  A    between atoms: _335  and  _336
REMARK  137  A    between atoms: _335  and  _338
REMARK  138  A    between atoms: _338  and  _339
REMARK  139  A    between atoms: _339  and  _340
REMARK  140  A    between atoms: _340  and  _341
REMARK  141  A    between atoms: _341  and  _342
REMARK  142  A    between atoms: _346  and  _348
REMARK  143  A    between atoms: _348  and  _349
REMARK  144  A    between atoms: _348  and  _351
REMARK  145  A    between atoms: _351  and  _352
REMARK  146  A    between atoms: _355  and  _357
REMARK  147  A    between atoms: _357  and  _358
REMARK  148  A    between atoms: _357  and  _360
REMARK  149  A    between atoms: _363  and  _365
REMARK  150  A    between atoms: _365  and  _366
REMARK  151  A    between atoms: _365  and  _368
REMARK  152  A    between atoms: _368  and  _369
REMARK  153  A    between atoms: _375  and  _377
REMARK  154  A    between atoms: _377  and  _378
REMARK  155  A    between atoms: _377  and  _380
REMARK  156  A    between atoms: _380  and  _381
REMARK  157  A    between atoms: _386  and  _387
REMARK  158  A    between atoms: _389  and  _391
REMARK  159  A    between atoms: _391  and  _392
REMARK  160  A    between atoms: _391  and  _394
REMARK  161  A    between atoms: _394  and  _395
REMARK  162  A    between atoms: _398  and  _400
REMARK  163  A    between atoms: _400  and  _401
REMARK  164  A    between atoms: _400  and  _403
REMARK  165  A    between atoms: _403  and  _404
REMARK  166  A    between atoms: _407  and  _409
REMARK  167  A    between atoms: _409  and  _410
REMARK  168  A    between atoms: _409  and  _412
REMARK  169  A    between atoms: _414  and  _416
REMARK  170  A    between atoms: _416  and  _417
REMARK  171  A    between atoms: _416  and  _419
REMARK  172  A    between atoms: _419  and  _420
REMARK  173  A    between atoms: _423  and  _425
REMARK  174  A    between atoms: _425  and  _426
REMARK  175  A    between atoms: _425  and  _428
REMARK  176  A    between atoms: _428  and  _429
REMARK  177  A    between atoms: _432  and  _434
REMARK  178  A    between atoms: _434  and  _435
REMARK  179  A    between atoms: _437  and  _439
REMARK  180  A    between atoms: _439  and  _440
REMARK  181  A    between atoms: _439  and  _442
REMARK  182  A    between atoms: _442  and  _443
REMARK  183  A    between atoms: _443  and  _444
REMARK  184  A    between atoms: _447  and  _449
REMARK  185  A    between atoms: _449  and  _450
REMARK  186  A    between atoms: _449  and  _452
REMARK  187  A    between atoms: _452  and  _453
REMARK  188  A    between atoms: _455  and  _457
REMARK  189  A    between atoms: _457  and  _458
REMARK  190  A    between atoms: _457  and  _460
REMARK  191  A    between atoms: _460  and  _461
REMARK  192  A    between atoms: _461  and  _462
REMARK  193  A    between atoms: _462  and  _463
REMARK  194  A    between atoms: _472  and  _474
REMARK  195  A    between atoms: _474  and  _475
REMARK  196  A    between atoms: _474  and  _477
REMARK  197  A    between atoms: _477  and  _478
REMARK  198  A    between atoms: _481  and  _483
REMARK  199  A    between atoms: _483  and  _484
REMARK  200  A    between atoms: _483  and  _486
REMARK  201  A    between atoms: _486  and  _487
REMARK  202  A    between atoms: _490  and  _492
REMARK  203  A    between atoms: _492  and  _493
REMARK  204  A    between atoms: _492  and  _495
REMARK  205  A    between atoms: _495  and  _496
REMARK  206  A    between atoms: _496  and  _497
REMARK  207  A    between atoms: _497  and  _498
REMARK  208  A    between atoms: _507  and  _509
REMARK  209  A    between atoms: _509  and  _510
REMARK  210  A    between atoms: _509  and  _512
REMARK  211  A    between atoms: _515  and  _517
REMARK  212  A    between atoms: _517  and  _518
REMARK  213  A    between atoms: _517  and  _520
REMARK  214  A    between atoms: _520  and  _521
REMARK  215  A    between atoms: _524  and  _526
REMARK  216  A    between atoms: _526  and  _527
REMARK  217  A    between atoms: _526  and  _529
REMARK  218  A    between atoms: _529  and  _530
REMARK  219  A    between atoms: _530  and  _531
REMARK  220  A    between atoms: _531  and  _532
REMARK  221  A    between atoms: _532  and  _533
REMARK  222  A    between atoms: _537  and  _539
REMARK  223  A    between atoms: _539  and  _540
REMARK  224  A    between atoms: _539  and  _542
REMARK  225  A    between atoms: _542  and  _543
REMARK  226  A    between atoms: _543  and  _544
REMARK  227  A    between atoms: _546  and  _548
REMARK  228  A    between atoms: _548  and  _549
REMARK  229  A    between atoms: _548  and  _551
REMARK  230  A    between atoms: _554  and  _556
REMARK  231  A    between atoms: _556  and  _557
REMARK  232  A    between atoms: _556  and  _559
REMARK  233  A    between atoms: _559  and  _560
REMARK  234  A    between atoms: _570  and  _572
REMARK  235  A    between atoms: _572  and  _573
REMARK  236  A    between atoms: _572  and  _575
REMARK  237  A    between atoms: _575  and  _576
REMARK  238  A    between atoms: _576  and  _577
REMARK  239  A    between atoms: _577  and  _578
REMARK  240  A    between atoms: _578  and  _579
REMARK  241  A    between atoms: _583  and  _585
REMARK  242  A    between atoms: _585  and  _586
REMARK  243  A    between atoms: _585  and  _588
REMARK  244  A    between atoms: _588  and  _589
REMARK  245  A    between atoms: _592  and  _594
REMARK  246  A    between atoms: _594  and  _595
REMARK  247  A    between atoms: _594  and  _597
REMARK  248  A    between atoms: _597  and  _598
REMARK  249  A    between atoms: _603  and  _604
REMARK                            x       y       z     vdW  Elec       q    Type
REMARK                         _______ _______ _______ _____ _____    ______ ____
ROOT
ATOM      1  O   HOH     1       8.046  -6.882  40.968  0.00  0.00    +0.000 OA
ENDROOT
TORSDOF 0
REMARK  Name = ../refined-set-2016/3p8z/3p8z_pocket.pdb
REMARK  249 active torsions:
REMARK  status: ('A' for Active; 'I' for Inactive)
REMARK    1  A    between atoms: _1  and  _3
REMARK    2  A    between atoms: _3  and  _4
REMARK    3  A    between atoms: _7  and  _9
REMARK    4  A    between atoms: _9  and  _10
REMARK    5  A    between atoms: _9  and  _12
REMARK    6  A    between atoms: _15  and  _17
REMARK    7  A    between atoms: _17  and  _18
REMARK    8  A    between atoms: _17  and  _20
REMARK    9  A    between atoms: _20  and  _21
REMARK   10  A    between atoms: _23  and  _25
REMARK   11  A    between atoms: _25  and  _26
REMARK   12  A    between atoms: _25  and  _28
REMARK   13  A    between atoms: _28  and  _29
REMARK   14  A    between atoms: _29  and  _30
REMARK   15  A    between atoms: _30  and  _31
REMARK   16  A    between atoms: _40  and  _42
REMARK   17  A    between atoms: _42  and  _43
REMARK   18  A    between atoms: _45  and  _47
REMARK   19  A    between atoms: _47  and  _48
REMARK   20  A    between atoms: _47  and  _50
REMARK   21  A    between atoms: _50  and  _51
REMARK   22  A    between atoms: _53  and  _55
REMARK   23  A    between atoms: _55  and  _56
REMARK   24  A    between atoms: _59  and  _61
REMARK   25  A    between atoms: _61  and  _62
REMARK   26  A    between atoms: _61  and  _64
REMARK   27  A    between atoms: _64  and  _65
REMARK   28  A    between atoms: _65  and  _66
REMARK   29  A    between atoms: _66  and  _67
REMARK   30  A    between atoms: _67  and  _68
REMARK   31  A    between atoms: _72  and  _74
REMARK   32  A    between atoms: _74  and  _75
REMARK   33  A    between atoms: _74  and  _77
REMARK   34  A    between atoms: _77  and  _78
REMARK   35  A    between atoms: _81  and  _83
REMARK   36  A    between atoms: _83  and  _84
REMARK   37  A    between atoms: _83  and  _86
REMARK   38  A    between atoms: _86  and  _87
REMARK   39  A    between atoms: _87  and  _88
REMARK   40  A    between atoms: _93  and  _95
REMARK   41  A    between atoms: _95  and  _96
REMARK   42  A    between atoms: _95  and  _98
REMARK   43  A    between atoms: _98  and  _99
REMARK   44  A    between atoms: _102  and  _104
REMARK   45  A    between atoms: _104  and  _105
REMARK   46  A    between atoms: _104  and  _107
REMARK   47  A    between atoms: _107  and  _108
REMARK   48  A    between atoms: _111  and  _113
REMARK   49  A    between atoms: _113  and  _114
REMARK   50  A    between atoms: _116  and  _118
REMARK   51  A    between atoms: _118  and  _119
REMARK   52  A    between atoms: _118  and  _121
REMARK   53  A    between atoms: _123  and  _125
REMARK   54  A    between atoms: _125  and  _126
REMARK   55  A    between atoms: _128  and  _130
REMARK   56  A    between atoms: _130  and  _131
REMARK   57  A    between atoms: _130  and  _133
REMARK   58  A    between atoms: _133  and  _134
REMARK   59  A    between atoms: _134  and  _135
REMARK   60  A    between atoms: _135  and  _136
REMARK   61  A    between atoms: _145  and  _147
REMARK   62  A    between atoms: _147  and  _148
REMARK   63  A    between atoms: _150  and  _152
REMARK   64  A    between atoms: _152  and  _153
REMARK   65  A    between atoms: _155  and  _157
REMARK   66  A    between atoms: _157  and  _158
REMARK   67  A    between atoms: _157  and  _160
REMARK   68  A    between atoms: _160  and  _161
REMARK   69  A    between atoms: _171  and  _173
REMARK   70  A    between atoms: _173  and  _174
REMARK   71  A    between atoms: _173  and  _176
REMARK   72  A    between atoms: _176  and  _177
REMARK   73  A    between atoms: _179  and  _181
REMARK   74  A    between atoms: _181  and  _182
REMARK   75  A    between atoms: _181  and  _184
REMARK   76  A    between atoms: _184  and  _185
REMARK   77  A    between atoms: _190  and  _191
REMARK   78  A    between atoms: _193  and  _195
REMARK   79  A    between atoms: _195  and  _196
REMARK   80  A    between atoms: _195  and  _198
REMARK   81  A    between atoms: _198  and  _199
REMARK   82  A    between atoms: _204  and  _205
REMARK   83  A    between atoms: _207  and  _209
REMARK   84  A    between atoms: _209  and  _210
REMARK   85  A    between atoms: _209  and  _212
REMARK   86  A    between atoms: _212  and  _213
REMARK   87  A    between atoms: _218  and  _219
REMARK   88  A    between atoms: _221  and  _223
REMARK   89  A    between atoms: _223  and  _224
REMARK   90  A    between atoms: _223  and  _226
REMARK   91  A    between atoms: _226  and  _227
REMARK   92  A    between atoms: _230  and  _232
REMARK   93  A    between atoms: _232  and  _233
REMARK   94  A    between atoms: _232  and  _235
REMARK   95  A    between atoms: _235  and  _236
REMARK   96  A    between atoms: _236  and  _237
REMARK   97  A    between atoms: _237  and  _238
REMARK   98  A    between atoms: _238  and  _239
REMARK   99  A    between atoms: _243  and  _245
REMARK  100  A    between atoms: _245  and  _246
REMARK  101  A    between atoms: _248  and  _250
REMARK  102  A    between atoms: _250  and  _251
REMARK  103  A    between atoms: _254  and  _255
REMARK  104  A    between atoms: _260  and  _262
REMARK  105  A    between atoms: _262  and  _263
REMARK  106  A    between atoms: _265  and  _267
REMARK  107  A    between atoms: _267  and  _268
REMARK  108  A    between atoms: _267  and  _270
REMARK  109  A    between atoms: _270  and  _271
REMARK  110  A    between atoms: _276  and  _278
REMARK  111  A    between atoms: _278  and  _279
REMARK  112  A    between atoms: _278  and  _281
REMARK  113  A    between atoms: _281  and  _282
REMARK  114  A    between atoms: _282  and  _283
REMARK  115  A    between atoms: _286  and  _288
REMARK  116  A    between atoms: _288  and  _289
REMARK  117  A    between atoms: _288  and  _291
REMARK  118  A    between atoms: _291  and  _292
REMARK  119  A    between atoms: _292  and  _293
REMARK  120  A    between atoms: _297  and  _298
REMARK  121  A    between atoms: _303  and  _305
REMARK  122  A    between atoms: _305  and  _306
REMARK  123  A    between atoms: _305  and  _308
REMARK  124  A    between atoms: _311  and  _313
REMARK  125  A    between atoms: _313  and  _314
REMARK  126  A    between atoms: _313  and  _316
REMARK  127  A    between atoms: _316  and  _317
REMARK  128  A    between atoms: _317  and  _318
REMARK  129  A    between atoms: _320  and  _322
REMARK  130  A    between atoms: _322  and  _323
REMARK  131  A    between atoms: _322  and  _325
REMARK  132  A    between atoms: _325  and  _326
REMARK  133  A    between atoms: _328  and  _330
REMARK  134  A    between atoms: _330  and  _331
REMARK  135  A    between atoms: _333  and  _335
REMARK  136  A    between atoms: _335  and  _336
REMARK  137  A    between atoms: _335  and  _338
REMARK  138  A    between atoms: _338  and  _339
REMARK  139  A    between atoms: _339  and  _340
REMARK  140  A    between atoms: _340  and  _341
REMARK  141  A    between atoms: _341  and  _342
REMARK  142  A    between atoms: _346  and  _348
REMARK  143  A    between atoms: _348  and  _349
REMARK  144  A    between atoms: _348  and  _351
REMARK  145  A    between atoms: _351  and  _352
REMARK  146  A    between atoms: _355  and  _357
REMARK  147  A    between atoms: _357  and  _358
REMARK  148  A    between atoms: _357  and  _360
REMARK  149  A    between atoms: _363  and  _365
REMARK  150  A    between atoms: _365  and  _366
REMARK  151  A    between atoms: _365  and  _368
REMARK  152  A    between atoms: _368  and  _369
REMARK  153  A    between atoms: _375  and  _377
REMARK  154  A    between atoms: _377  and  _378
REMARK  155  A    between atoms: _377  and  _380
REMARK  156  A    between atoms: _380  and  _381
REMARK  157  A    between atoms: _386  and  _387
REMARK  158  A    between atoms: _389  and  _391
REMARK  159  A    between atoms: _391  and  _392
REMARK  160  A    between atoms: _391  and  _394
REMARK  161  A    between atoms: _394  and  _395
REMARK  162  A    between atoms: _398  and  _400
REMARK  163  A    between atoms: _400  and  _401
REMARK  164  A    between atoms: _400  and  _403
REMARK  165  A    between atoms: _403  and  _404
REMARK  166  A    between atoms: _407  and  _409
REMARK  167  A    between atoms: _409  and  _410
REMARK  168  A    between atoms: _409  and  _412
REMARK  169  A    between atoms: _414  and  _416
REMARK  170  A    between atoms: _416  and  _417
REMARK  171  A    between atoms: _416  and  _419
REMARK  172  A    between atoms: _419  and  _420
REMARK  173  A    between atoms: _423  and  _425
REMARK  174  A    between atoms: _425  and  _426
REMARK  175  A    between atoms: _425  and  _428
REMARK  176  A    between atoms: _428  and  _429
REMARK  177  A    between atoms: _432  and  _434
REMARK  178  A    between atoms: _434  and  _435
REMARK  179  A    between atoms: _437  and  _439
REMARK  180  A    between atoms: _439  and  _440
REMARK  181  A    between atoms: _439  and  _442
REMARK  182  A    between atoms: _442  and  _443
REMARK  183  A    between atoms: _443  and  _444
REMARK  184  A    between atoms: _447  and  _449
REMARK  185  A    between atoms: _449  and  _450
REMARK  186  A    between atoms: _449  and  _452
REMARK  187  A    between atoms: _452  and  _453
REMARK  188  A    between atoms: _455  and  _457
REMARK  189  A    between atoms: _457  and  _458
REMARK  190  A    between atoms: _457  and  _460
REMARK  191  A    between atoms: _460  and  _461
REMARK  192  A    between atoms: _461  and  _462
REMARK  193  A    between atoms: _462  and  _463
REMARK  194  A    between atoms: _472  and  _474
REMARK  195  A    between atoms: _474  and  _475
REMARK  196  A    between atoms: _474  and  _477
REMARK  197  A    between atoms: _477  and  _478
REMARK  198  A    between atoms: _481  and  _483
REMARK  199  A    between atoms: _483  and  _484
REMARK  200  A    between atoms: _483  and  _486
REMARK  201  A    between atoms: _486  and  _487
REMARK  202  A    between atoms: _490  and  _492
REMARK  203  A    between atoms: _492  and  _493
REMARK  204  A    between atoms: _492  and  _495
REMARK  205  A    between atoms: _495  and  _496
REMARK  206  A    between atoms: _496  and  _497
REMARK  207  A    between atoms: _497  and  _498
REMARK  208  A    between atoms: _507  and  _509
REMARK  209  A    between atoms: _509  and  _510
REMARK  210  A    between atoms: _509  and  _512
REMARK  211  A    between atoms: _515  and  _517
REMARK  212  A    between atoms: _517  and  _518
REMARK  213  A    between atoms: _517  and  _520
REMARK  214  A    between atoms: _520  and  _521
REMARK  215  A    between atoms: _524  and  _526
REMARK  216  A    between atoms: _526  and  _527
REMARK  217  A    between atoms: _526  and  _529
REMARK  218  A    between atoms: _529  and  _530
REMARK  219  A    between atoms: _530  and  _531
REMARK  220  A    between atoms: _531  and  _532
REMARK  221  A    between atoms: _532  and  _533
REMARK  222  A    between atoms: _537  and  _539
REMARK  223  A    between atoms: _539  and  _540
REMARK  224  A    between atoms: _539  and  _542
REMARK  225  A    between atoms: _542  and  _543
REMARK  226  A    between atoms: _543  and  _544
REMARK  227  A    between atoms: _546  and  _548
REMARK  228  A    between atoms: _548  and  _549
REMARK  229  A    between atoms: _548  and  _551
REMARK  230  A    between atoms: _554  and  _556
REMARK  231  A    between atoms: _556  and  _557
REMARK  232  A    between atoms: _556  and  _559
REMARK  233  A    between atoms: _559  and  _560
REMARK  234  A    between atoms: _570  and  _572
REMARK  235  A    between atoms: _572  and  _573
REMARK  236  A    between atoms: _572  and  _575
REMARK  237  A    between atoms: _575  and  _576
REMARK  238  A    between atoms: _576  and  _577
REMARK  239  A    between atoms: _577  and  _578
REMARK  240  A    between atoms: _578  and  _579
REMARK  241  A    between atoms: _583  and  _585
REMARK  242  A    between atoms: _585  and  _586
REMARK  243  A    between atoms: _585  and  _588
REMARK  244  A    between atoms: _588  and  _589
REMARK  245  A    between atoms: _592  and  _594
REMARK  246  A    between atoms: _594  and  _595
REMARK  247  A    between atoms: _594  and  _597
REMARK  248  A    between atoms: _597  and  _598
REMARK  249  A    between atoms: _603  and  _604
REMARK                            x       y       z     vdW  Elec       q    Type
REMARK                         _______ _______ _______ _____ _____    ______ ____
ROOT
ATOM      1  O   HOH     1      -5.050   3.370  30.178  0.00  0.00    +0.000 OA
ENDROOT
TORSDOF 0
REMARK  Name = ../refined-set-2016/3p8z/3p8z_pocket.pdb
REMARK  249 active torsions:
REMARK  status: ('A' for Active; 'I' for Inactive)
REMARK    1  A    between atoms: _1  and  _3
REMARK    2  A    between atoms: _3  and  _4
REMARK    3  A    between atoms: _7  and  _9
REMARK    4  A    between atoms: _9  and  _10
REMARK    5  A    between atoms: _9  and  _12
REMARK    6  A    between atoms: _15  and  _17
REMARK    7  A    between atoms: _17  and  _18
REMARK    8  A    between atoms: _17  and  _20
REMARK    9  A    between atoms: _20  and  _21
REMARK   10  A    between atoms: _23  and  _25
REMARK   11  A    between atoms: _25  and  _26
REMARK   12  A    between atoms: _25  and  _28
REMARK   13  A    between atoms: _28  and  _29
REMARK   14  A    between atoms: _29  and  _30
REMARK   15  A    between atoms: _30  and  _31
REMARK   16  A    between atoms: _40  and  _42
REMARK   17  A    between atoms: _42  and  _43
REMARK   18  A    between atoms: _45  and  _47
REMARK   19  A    between atoms: _47  and  _48
REMARK   20  A    between atoms: _47  and  _50
REMARK   21  A    between atoms: _50  and  _51
REMARK   22  A    between atoms: _53  and  _55
REMARK   23  A    between atoms: _55  and  _56
REMARK   24  A    between atoms: _59  and  _61
REMARK   25  A    between atoms: _61  and  _62
REMARK   26  A    between atoms: _61  and  _64
REMARK   27  A    between atoms: _64  and  _65
REMARK   28  A    between atoms: _65  and  _66
REMARK   29  A    between atoms: _66  and  _67
REMARK   30  A    between atoms: _67  and  _68
REMARK   31  A    between atoms: _72  and  _74
REMARK   32  A    between atoms: _74  and  _75
REMARK   33  A    between atoms: _74  and  _77
REMARK   34  A    between atoms: _77  and  _78
REMARK   35  A    between atoms: _81  and  _83
REMARK   36  A    between atoms: _83  and  _84
REMARK   37  A    between atoms: _83  and  _86
REMARK   38  A    between atoms: _86  and  _87
REMARK   39  A    between atoms: _87  and  _88
REMARK   40  A    between atoms: _93  and  _95
REMARK   41  A    between atoms: _95  and  _96
REMARK   42  A    between atoms: _95  and  _98
REMARK   43  A    between atoms: _98  and  _99
REMARK   44  A    between atoms: _102  and  _104
REMARK   45  A    between atoms: _104  and  _105
REMARK   46  A    between atoms: _104  and  _107
REMARK   47  A    between atoms: _107  and  _108
REMARK   48  A    between atoms: _111  and  _113
REMARK   49  A    between atoms: _113  and  _114
REMARK   50  A    between atoms: _116  and  _118
REMARK   51  A    between atoms: _118  and  _119
REMARK   52  A    between atoms: _118  and  _121
REMARK   53  A    between atoms: _123  and  _125
REMARK   54  A    between atoms: _125  and  _126
REMARK   55  A    between atoms: _128  and  _130
REMARK   56  A    between atoms: _130  and  _131
REMARK   57  A    between atoms: _130  and  _133
REMARK   58  A    between atoms: _133  and  _134
REMARK   59  A    between atoms: _134  and  _135
REMARK   60  A    between atoms: _135  and  _136
REMARK   61  A    between atoms: _145  and  _147
REMARK   62  A    between atoms: _147  and  _148
REMARK   63  A    between atoms: _150  and  _152
REMARK   64  A    between atoms: _152  and  _153
REMARK   65  A    between atoms: _155  and  _157
REMARK   66  A    between atoms: _157  and  _158
REMARK   67  A    between atoms: _157  and  _160
REMARK   68  A    between atoms: _160  and  _161
REMARK   69  A    between atoms: _171  and  _173
REMARK   70  A    between atoms: _173  and  _174
REMARK   71  A    between atoms: _173  and  _176
REMARK   72  A    between atoms: _176  and  _177
REMARK   73  A    between atoms: _179  and  _181
REMARK   74  A    between atoms: _181  and  _182
REMARK   75  A    between atoms: _181  and  _184
REMARK   76  A    between atoms: _184  and  _185
REMARK   77  A    between atoms: _190  and  _191
REMARK   78  A    between atoms: _193  and  _195
REMARK   79  A    between atoms: _195  and  _196
REMARK   80  A    between atoms: _195  and  _198
REMARK   81  A    between atoms: _198  and  _199
REMARK   82  A    between atoms: _204  and  _205
REMARK   83  A    between atoms: _207  and  _209
REMARK   84  A    between atoms: _209  and  _210
REMARK   85  A    between atoms: _209  and  _212
REMARK   86  A    between atoms: _212  and  _213
REMARK   87  A    between atoms: _218  and  _219
REMARK   88  A    between atoms: _221  and  _223
REMARK   89  A    between atoms: _223  and  _224
REMARK   90  A    between atoms: _223  and  _226
REMARK   91  A    between atoms: _226  and  _227
REMARK   92  A    between atoms: _230  and  _232
REMARK   93  A    between atoms: _232  and  _233
REMARK   94  A    between atoms: _232  and  _235
REMARK   95  A    between atoms: _235  and  _236
REMARK   96  A    between atoms: _236  and  _237
REMARK   97  A    between atoms: _237  and  _238
REMARK   98  A    between atoms: _238  and  _239
REMARK   99  A    between atoms: _243  and  _245
REMARK  100  A    between atoms: _245  and  _246
REMARK  101  A    between atoms: _248  and  _250
REMARK  102  A    between atoms: _250  and  _251
REMARK  103  A    between atoms: _254  and  _255
REMARK  104  A    between atoms: _260  and  _262
REMARK  105  A    between atoms: _262  and  _263
REMARK  106  A    between atoms: _265  and  _267
REMARK  107  A    between atoms: _267  and  _268
REMARK  108  A    between atoms: _267  and  _270
REMARK  109  A    between atoms: _270  and  _271
REMARK  110  A    between atoms: _276  and  _278
REMARK  111  A    between atoms: _278  and  _279
REMARK  112  A    between atoms: _278  and  _281
REMARK  113  A    between atoms: _281  and  _282
REMARK  114  A    between atoms: _282  and  _283
REMARK  115  A    between atoms: _286  and  _288
REMARK  116  A    between atoms: _288  and  _289
REMARK  117  A    between atoms: _288  and  _291
REMARK  118  A    between atoms: _291  and  _292
REMARK  119  A    between atoms: _292  and  _293
REMARK  120  A    between atoms: _297  and  _298
REMARK  121  A    between atoms: _303  and  _305
REMARK  122  A    between atoms: _305  and  _306
REMARK  123  A    between atoms: _305  and  _308
REMARK  124  A    between atoms: _311  and  _313
REMARK  125  A    between atoms: _313  and  _314
REMARK  126  A    between atoms: _313  and  _316
REMARK  127  A    between atoms: _316  and  _317
REMARK  128  A    between atoms: _317  and  _318
REMARK  129  A    between atoms: _320  and  _322
REMARK  130  A    between atoms: _322  and  _323
REMARK  131  A    between atoms: _322  and  _325
REMARK  132  A    between atoms: _325  and  _326
REMARK  133  A    between atoms: _328  and  _330
REMARK  134  A    between atoms: _330  and  _331
REMARK  135  A    between atoms: _333  and  _335
REMARK  136  A    between atoms: _335  and  _336
REMARK  137  A    between atoms: _335  and  _338
REMARK  138  A    between atoms: _338  and  _339
REMARK  139  A    between atoms: _339  and  _340
REMARK  140  A    between atoms: _340  and  _341
REMARK  141  A    between atoms: _341  and  _342
REMARK  142  A    between atoms: _346  and  _348
REMARK  143  A    between atoms: _348  and  _349
REMARK  144  A    between atoms: _348  and  _351
REMARK  145  A    between atoms: _351  and  _352
REMARK  146  A    between atoms: _355  and  _357
REMARK  147  A    between atoms: _357  and  _358
REMARK  148  A    between atoms: _357  and  _360
REMARK  149  A    between atoms: _363  and  _365
REMARK  150  A    between atoms: _365  and  _366
REMARK  151  A    between atoms: _365  and  _368
REMARK  152  A    between atoms: _368  and  _369
REMARK  153  A    between atoms: _375  and  _377
REMARK  154  A    between atoms: _377  and  _378
REMARK  155  A    between atoms: _377  and  _380
REMARK  156  A    between atoms: _380  and  _381
REMARK  157  A    between atoms: _386  and  _387
REMARK  158  A    between atoms: _389  and  _391
REMARK  159  A    between atoms: _391  and  _392
REMARK  160  A    between atoms: _391  and  _394
REMARK  161  A    between atoms: _394  and  _395
REMARK  162  A    between atoms: _398  and  _400
REMARK  163  A    between atoms: _400  and  _401
REMARK  164  A    between atoms: _400  and  _403
REMARK  165  A    between atoms: _403  and  _404
REMARK  166  A    between atoms: _407  and  _409
REMARK  167  A    between atoms: _409  and  _410
REMARK  168  A    between atoms: _409  and  _412
REMARK  169  A    between atoms: _414  and  _416
REMARK  170  A    between atoms: _416  and  _417
REMARK  171  A    between atoms: _416  and  _419
REMARK  172  A    between atoms: _419  and  _420
REMARK  173  A    between atoms: _423  and  _425
REMARK  174  A    between atoms: _425  and  _426
REMARK  175  A    between atoms: _425  and  _428
REMARK  176  A    between atoms: _428  and  _429
REMARK  177  A    between atoms: _432  and  _434
REMARK  178  A    between atoms: _434  and  _435
REMARK  179  A    between atoms: _437  and  _439
REMARK  180  A    between atoms: _439  and  _440
REMARK  181  A    between atoms: _439  and  _442
REMARK  182  A    between atoms: _442  and  _443
REMARK  183  A    between atoms: _443  and  _444
REMARK  184  A    between atoms: _447  and  _449
REMARK  185  A    between atoms: _449  and  _450
REMARK  186  A    between atoms: _449  and  _452
REMARK  187  A    between atoms: _452  and  _453
REMARK  188  A    between atoms: _455  and  _457
REMARK  189  A    between atoms: _457  and  _458
REMARK  190  A    between atoms: _457  and  _460
REMARK  191  A    between atoms: _460  and  _461
REMARK  192  A    between atoms: _461  and  _462
REMARK  193  A    between atoms: _462  and  _463
REMARK  194  A    between atoms: _472  and  _474
REMARK  195  A    between atoms: _474  and  _475
REMARK  196  A    between atoms: _474  and  _477
REMARK  197  A    between atoms: _477  and  _478
REMARK  198  A    between atoms: _481  and  _483
REMARK  199  A    between atoms: _483  and  _484
REMARK  200  A    between atoms: _483  and  _486
REMARK  201  A    between atoms: _486  and  _487
REMARK  202  A    between atoms: _490  and  _492
REMARK  203  A    between atoms: _492  and  _493
REMARK  204  A    between atoms: _492  and  _495
REMARK  205  A    between atoms: _495  and  _496
REMARK  206  A    between atoms: _496  and  _497
REMARK  207  A    between atoms: _497  and  _498
REMARK  208  A    between atoms: _507  and  _509
REMARK  209  A    between atoms: _509  and  _510
REMARK  210  A    between atoms: _509  and  _512
REMARK  211  A    between atoms: _515  and  _517
REMARK  212  A    between atoms: _517  and  _518
REMARK  213  A    between atoms: _517  and  _520
REMARK  214  A    between atoms: _520  and  _521
REMARK  215  A    between atoms: _524  and  _526
REMARK  216  A    between atoms: _526  and  _527
REMARK  217  A    between atoms: _526  and  _529
REMARK  218  A    between atoms: _529  and  _530
REMARK  219  A    between atoms: _530  and  _531
REMARK  220  A    between atoms: _531  and  _532
REMARK  221  A    between atoms: _532  and  _533
REMARK  222  A    between atoms: _537  and  _539
REMARK  223  A    between atoms: _539  and  _540
REMARK  224  A    between atoms: _539  and  _542
REMARK  225  A    between atoms: _542  and  _543
REMARK  226  A    between atoms: _543  and  _544
REMARK  227  A    between atoms: _546  and  _548
REMARK  228  A    between atoms: _548  and  _549
REMARK  229  A    between atoms: _548  and  _551
REMARK  230  A    between atoms: _554  and  _556
REMARK  231  A    between atoms: _556  and  _557
REMARK  232  A    between atoms: _556  and  _559
REMARK  233  A    between atoms: _559  and  _560
REMARK  234  A    between atoms: _570  and  _572
REMARK  235  A    between atoms: _572  and  _573
REMARK  236  A    between atoms: _572  and  _575
REMARK  237  A    between atoms: _575  and  _576
REMARK  238  A    between atoms: _576  and  _577
REMARK  239  A    between atoms: _577  and  _578
REMARK  240  A    between atoms: _578  and  _579
REMARK  241  A    between atoms: _583  and  _585
REMARK  242  A    between atoms: _585  and  _586
REMARK  243  A    between atoms: _585  and  _588
REMARK  244  A    between atoms: _588  and  _589
REMARK  245  A    between atoms: _592  and  _594
REMARK  246  A    between atoms: _594  and  _595
REMARK  247  A    between atoms: _594  and  _597
REMARK  248  A    between atoms: _597  and  _598
REMARK  249  A    between atoms: _603  and  _604
REMARK                            x       y       z     vdW  Elec       q    Type
REMARK                         _______ _______ _______ _____ _____    ______ ____
ROOT
ATOM      1  O   HOH     1       8.972   1.715  43.936  0.00  0.00    +0.000 OA
ENDROOT
TORSDOF 0
REMARK  Name = ../refined-set-2016/3p8z/3p8z_pocket.pdb
REMARK  249 active torsions:
REMARK  status: ('A' for Active; 'I' for Inactive)
REMARK    1  A    between atoms: _1  and  _3
REMARK    2  A    between atoms: _3  and  _4
REMARK    3  A    between atoms: _7  and  _9
REMARK    4  A    between atoms: _9  and  _10
REMARK    5  A    between atoms: _9  and  _12
REMARK    6  A    between atoms: _15  and  _17
REMARK    7  A    between atoms: _17  and  _18
REMARK    8  A    between atoms: _17  and  _20
REMARK    9  A    between atoms: _20  and  _21
REMARK   10  A    between atoms: _23  and  _25
REMARK   11  A    between atoms: _25  and  _26
REMARK   12  A    between atoms: _25  and  _28
REMARK   13  A    between atoms: _28  and  _29
REMARK   14  A    between atoms: _29  and  _30
REMARK   15  A    between atoms: _30  and  _31
REMARK   16  A    between atoms: _40  and  _42
REMARK   17  A    between atoms: _42  and  _43
REMARK   18  A    between atoms: _45  and  _47
REMARK   19  A    between atoms: _47  and  _48
REMARK   20  A    between atoms: _47  and  _50
REMARK   21  A    between atoms: _50  and  _51
REMARK   22  A    between atoms: _53  and  _55
REMARK   23  A    between atoms: _55  and  _56
REMARK   24  A    between atoms: _59  and  _61
REMARK   25  A    between atoms: _61  and  _62
REMARK   26  A    between atoms: _61  and  _64
REMARK   27  A    between atoms: _64  and  _65
REMARK   28  A    between atoms: _65  and  _66
REMARK   29  A    between atoms: _66  and  _67
REMARK   30  A    between atoms: _67  and  _68
REMARK   31  A    between atoms: _72  and  _74
REMARK   32  A    between atoms: _74  and  _75
REMARK   33  A    between atoms: _74  and  _77
REMARK   34  A    between atoms: _77  and  _78
REMARK   35  A    between atoms: _81  and  _83
REMARK   36  A    between atoms: _83  and  _84
REMARK   37  A    between atoms: _83  and  _86
REMARK   38  A    between atoms: _86  and  _87
REMARK   39  A    between atoms: _87  and  _88
REMARK   40  A    between atoms: _93  and  _95
REMARK   41  A    between atoms: _95  and  _96
REMARK   42  A    between atoms: _95  and  _98
REMARK   43  A    between atoms: _98  and  _99
REMARK   44  A    between atoms: _102  and  _104
REMARK   45  A    between atoms: _104  and  _105
REMARK   46  A    between atoms: _104  and  _107
REMARK   47  A    between atoms: _107  and  _108
REMARK   48  A    between atoms: _111  and  _113
REMARK   49  A    between atoms: _113  and  _114
REMARK   50  A    between atoms: _116  and  _118
REMARK   51  A    between atoms: _118  and  _119
REMARK   52  A    between atoms: _118  and  _121
REMARK   53  A    between atoms: _123  and  _125
REMARK   54  A    between atoms: _125  and  _126
REMARK   55  A    between atoms: _128  and  _130
REMARK   56  A    between atoms: _130  and  _131
REMARK   57  A    between atoms: _130  and  _133
REMARK   58  A    between atoms: _133  and  _134
REMARK   59  A    between atoms: _134  and  _135
REMARK   60  A    between atoms: _135  and  _136
REMARK   61  A    between atoms: _145  and  _147
REMARK   62  A    between atoms: _147  and  _148
REMARK   63  A    between atoms: _150  and  _152
REMARK   64  A    between atoms: _152  and  _153
REMARK   65  A    between atoms: _155  and  _157
REMARK   66  A    between atoms: _157  and  _158
REMARK   67  A    between atoms: _157  and  _160
REMARK   68  A    between atoms: _160  and  _161
REMARK   69  A    between atoms: _171  and  _173
REMARK   70  A    between atoms: _173  and  _174
REMARK   71  A    between atoms: _173  and  _176
REMARK   72  A    between atoms: _176  and  _177
REMARK   73  A    between atoms: _179  and  _181
REMARK   74  A    between atoms: _181  and  _182
REMARK   75  A    between atoms: _181  and  _184
REMARK   76  A    between atoms: _184  and  _185
REMARK   77  A    between atoms: _190  and  _191
REMARK   78  A    between atoms: _193  and  _195
REMARK   79  A    between atoms: _195  and  _196
REMARK   80  A    between atoms: _195  and  _198
REMARK   81  A    between atoms: _198  and  _199
REMARK   82  A    between atoms: _204  and  _205
REMARK   83  A    between atoms: _207  and  _209
REMARK   84  A    between atoms: _209  and  _210
REMARK   85  A    between atoms: _209  and  _212
REMARK   86  A    between atoms: _212  and  _213
REMARK   87  A    between atoms: _218  and  _219
REMARK   88  A    between atoms: _221  and  _223
REMARK   89  A    between atoms: _223  and  _224
REMARK   90  A    between atoms: _223  and  _226
REMARK   91  A    between atoms: _226  and  _227
REMARK   92  A    between atoms: _230  and  _232
REMARK   93  A    between atoms: _232  and  _233
REMARK   94  A    between atoms: _232  and  _235
REMARK   95  A    between atoms: _235  and  _236
REMARK   96  A    between atoms: _236  and  _237
REMARK   97  A    between atoms: _237  and  _238
REMARK   98  A    between atoms: _238  and  _239
REMARK   99  A    between atoms: _243  and  _245
REMARK  100  A    between atoms: _245  and  _246
REMARK  101  A    between atoms: _248  and  _250
REMARK  102  A    between atoms: _250  and  _251
REMARK  103  A    between atoms: _254  and  _255
REMARK  104  A    between atoms: _260  and  _262
REMARK  105  A    between atoms: _262  and  _263
REMARK  106  A    between atoms: _265  and  _267
REMARK  107  A    between atoms: _267  and  _268
REMARK  108  A    between atoms: _267  and  _270
REMARK  109  A    between atoms: _270  and  _271
REMARK  110  A    between atoms: _276  and  _278
REMARK  111  A    between atoms: _278  and  _279
REMARK  112  A    between atoms: _278  and  _281
REMARK  113  A    between atoms: _281  and  _282
REMARK  114  A    between atoms: _282  and  _283
REMARK  115  A    between atoms: _286  and  _288
REMARK  116  A    between atoms: _288  and  _289
REMARK  117  A    between atoms: _288  and  _291
REMARK  118  A    between atoms: _291  and  _292
REMARK  119  A    between atoms: _292  and  _293
REMARK  120  A    between atoms: _297  and  _298
REMARK  121  A    between atoms: _303  and  _305
REMARK  122  A    between atoms: _305  and  _306
REMARK  123  A    between atoms: _305  and  _308
REMARK  124  A    between atoms: _311  and  _313
REMARK  125  A    between atoms: _313  and  _314
REMARK  126  A    between atoms: _313  and  _316
REMARK  127  A    between atoms: _316  and  _317
REMARK  128  A    between atoms: _317  and  _318
REMARK  129  A    between atoms: _320  and  _322
REMARK  130  A    between atoms: _322  and  _323
REMARK  131  A    between atoms: _322  and  _325
REMARK  132  A    between atoms: _325  and  _326
REMARK  133  A    between atoms: _328  and  _330
REMARK  134  A    between atoms: _330  and  _331
REMARK  135  A    between atoms: _333  and  _335
REMARK  136  A    between atoms: _335  and  _336
REMARK  137  A    between atoms: _335  and  _338
REMARK  138  A    between atoms: _338  and  _339
REMARK  139  A    between atoms: _339  and  _340
REMARK  140  A    between atoms: _340  and  _341
REMARK  141  A    between atoms: _341  and  _342
REMARK  142  A    between atoms: _346  and  _348
REMARK  143  A    between atoms: _348  and  _349
REMARK  144  A    between atoms: _348  and  _351
REMARK  145  A    between atoms: _351  and  _352
REMARK  146  A    between atoms: _355  and  _357
REMARK  147  A    between atoms: _357  and  _358
REMARK  148  A    between atoms: _357  and  _360
REMARK  149  A    between atoms: _363  and  _365
REMARK  150  A    between atoms: _365  and  _366
REMARK  151  A    between atoms: _365  and  _368
REMARK  152  A    between atoms: _368  and  _369
REMARK  153  A    between atoms: _375  and  _377
REMARK  154  A    between atoms: _377  and  _378
REMARK  155  A    between atoms: _377  and  _380
REMARK  156  A    between atoms: _380  and  _381
REMARK  157  A    between atoms: _386  and  _387
REMARK  158  A    between atoms: _389  and  _391
REMARK  159  A    between atoms: _391  and  _392
REMARK  160  A    between atoms: _391  and  _394
REMARK  161  A    between atoms: _394  and  _395
REMARK  162  A    between atoms: _398  and  _400
REMARK  163  A    between atoms: _400  and  _401
REMARK  164  A    between atoms: _400  and  _403
REMARK  165  A    between atoms: _403  and  _404
REMARK  166  A    between atoms: _407  and  _409
REMARK  167  A    between atoms: _409  and  _410
REMARK  168  A    between atoms: _409  and  _412
REMARK  169  A    between atoms: _414  and  _416
REMARK  170  A    between atoms: _416  and  _417
REMARK  171  A    between atoms: _416  and  _419
REMARK  172  A    between atoms: _419  and  _420
REMARK  173  A    between atoms: _423  and  _425
REMARK  174  A    between atoms: _425  and  _426
REMARK  175  A    between atoms: _425  and  _428
REMARK  176  A    between atoms: _428  and  _429
REMARK  177  A    between atoms: _432  and  _434
REMARK  178  A    between atoms: _434  and  _435
REMARK  179  A    between atoms: _437  and  _439
REMARK  180  A    between atoms: _439  and  _440
REMARK  181  A    between atoms: _439  and  _442
REMARK  182  A    between atoms: _442  and  _443
REMARK  183  A    between atoms: _443  and  _444
REMARK  184  A    between atoms: _447  and  _449
REMARK  185  A    between atoms: _449  and  _450
REMARK  186  A    between atoms: _449  and  _452
REMARK  187  A    between atoms: _452  and  _453
REMARK  188  A    between atoms: _455  and  _457
REMARK  189  A    between atoms: _457  and  _458
REMARK  190  A    between atoms: _457  and  _460
REMARK  191  A    between atoms: _460  and  _461
REMARK  192  A    between atoms: _461  and  _462
REMARK  193  A    between atoms: _462  and  _463
REMARK  194  A    between atoms: _472  and  _474
REMARK  195  A    between atoms: _474  and  _475
REMARK  196  A    between atoms: _474  and  _477
REMARK  197  A    between atoms: _477  and  _478
REMARK  198  A    between atoms: _481  and  _483
REMARK  199  A    between atoms: _483  and  _484
REMARK  200  A    between atoms: _483  and  _486
REMARK  201  A    between atoms: _486  and  _487
REMARK  202  A    between atoms: _490  and  _492
REMARK  203  A    between atoms: _492  and  _493
REMARK  204  A    between atoms: _492  and  _495
REMARK  205  A    between atoms: _495  and  _496
REMARK  206  A    between atoms: _496  and  _497
REMARK  207  A    between atoms: _497  and  _498
REMARK  208  A    between atoms: _507  and  _509
REMARK  209  A    between atoms: _509  and  _510
REMARK  210  A    between atoms: _509  and  _512
REMARK  211  A    between atoms: _515  and  _517
REMARK  212  A    between atoms: _517  and  _518
REMARK  213  A    between atoms: _517  and  _520
REMARK  214  A    between atoms: _520  and  _521
REMARK  215  A    between atoms: _524  and  _526
REMARK  216  A    between atoms: _526  and  _527
REMARK  217  A    between atoms: _526  and  _529
REMARK  218  A    between atoms: _529  and  _530
REMARK  219  A    between atoms: _530  and  _531
REMARK  220  A    between atoms: _531  and  _532
REMARK  221  A    between atoms: _532  and  _533
REMARK  222  A    between atoms: _537  and  _539
REMARK  223  A    between atoms: _539  and  _540
REMARK  224  A    between atoms: _539  and  _542
REMARK  225  A    between atoms: _542  and  _543
REMARK  226  A    between atoms: _543  and  _544
REMARK  227  A    between atoms: _546  and  _548
REMARK  228  A    between atoms: _548  and  _549
REMARK  229  A    between atoms: _548  and  _551
REMARK  230  A    between atoms: _554  and  _556
REMARK  231  A    between atoms: _556  and  _557
REMARK  232  A    between atoms: _556  and  _559
REMARK  233  A    between atoms: _559  and  _560
REMARK  234  A    between atoms: _570  and  _572
REMARK  235  A    between atoms: _572  and  _573
REMARK  236  A    between atoms: _572  and  _575
REMARK  237  A    between atoms: _575  and  _576
REMARK  238  A    between atoms: _576  and  _577
REMARK  239  A    between atoms: _577  and  _578
REMARK  240  A    between atoms: _578  and  _579
REMARK  241  A    between atoms: _583  and  _585
REMARK  242  A    between atoms: _585  and  _586
REMARK  243  A    between atoms: _585  and  _588
REMARK  244  A    between atoms: _588  and  _589
REMARK  245  A    between atoms: _592  and  _594
REMARK  246  A    between atoms: _594  and  _595
REMARK  247  A    between atoms: _594  and  _597
REMARK  248  A    between atoms: _597  and  _598
REMARK  249  A    between atoms: _603  and  _604
REMARK                            x       y       z     vdW  Elec       q    Type
REMARK                         _______ _______ _______ _____ _____    ______ ____
ROOT
ATOM      1  O   HOH     1      -4.202   5.515  34.648  0.00  0.00    +0.000 OA
ENDROOT
TORSDOF 0
REMARK  Name = ../refined-set-2016/3p8z/3p8z_pocket.pdb
REMARK  249 active torsions:
REMARK  status: ('A' for Active; 'I' for Inactive)
REMARK    1  A    between atoms: _1  and  _3
REMARK    2  A    between atoms: _3  and  _4
REMARK    3  A    between atoms: _7  and  _9
REMARK    4  A    between atoms: _9  and  _10
REMARK    5  A    between atoms: _9  and  _12
REMARK    6  A    between atoms: _15  and  _17
REMARK    7  A    between atoms: _17  and  _18
REMARK    8  A    between atoms: _17  and  _20
REMARK    9  A    between atoms: _20  and  _21
REMARK   10  A    between atoms: _23  and  _25
REMARK   11  A    between atoms: _25  and  _26
REMARK   12  A    between atoms: _25  and  _28
REMARK   13  A    between atoms: _28  and  _29
REMARK   14  A    between atoms: _29  and  _30
REMARK   15  A    between atoms: _30  and  _31
REMARK   16  A    between atoms: _40  and  _42
REMARK   17  A    between atoms: _42  and  _43
REMARK   18  A    between atoms: _45  and  _47
REMARK   19  A    between atoms: _47  and  _48
REMARK   20  A    between atoms: _47  and  _50
REMARK   21  A    between atoms: _50  and  _51
REMARK   22  A    between atoms: _53  and  _55
REMARK   23  A    between atoms: _55  and  _56
REMARK   24  A    between atoms: _59  and  _61
REMARK   25  A    between atoms: _61  and  _62
REMARK   26  A    between atoms: _61  and  _64
REMARK   27  A    between atoms: _64  and  _65
REMARK   28  A    between atoms: _65  and  _66
REMARK   29  A    between atoms: _66  and  _67
REMARK   30  A    between atoms: _67  and  _68
REMARK   31  A    between atoms: _72  and  _74
REMARK   32  A    between atoms: _74  and  _75
REMARK   33  A    between atoms: _74  and  _77
REMARK   34  A    between atoms: _77  and  _78
REMARK   35  A    between atoms: _81  and  _83
REMARK   36  A    between atoms: _83  and  _84
REMARK   37  A    between atoms: _83  and  _86
REMARK   38  A    between atoms: _86  and  _87
REMARK   39  A    between atoms: _87  and  _88
REMARK   40  A    between atoms: _93  and  _95
REMARK   41  A    between atoms: _95  and  _96
REMARK   42  A    between atoms: _95  and  _98
REMARK   43  A    between atoms: _98  and  _99
REMARK   44  A    between atoms: _102  and  _104
REMARK   45  A    between atoms: _104  and  _105
REMARK   46  A    between atoms: _104  and  _107
REMARK   47  A    between atoms: _107  and  _108
REMARK   48  A    between atoms: _111  and  _113
REMARK   49  A    between atoms: _113  and  _114
REMARK   50  A    between atoms: _116  and  _118
REMARK   51  A    between atoms: _118  and  _119
REMARK   52  A    between atoms: _118  and  _121
REMARK   53  A    between atoms: _123  and  _125
REMARK   54  A    between atoms: _125  and  _126
REMARK   55  A    between atoms: _128  and  _130
REMARK   56  A    between atoms: _130  and  _131
REMARK   57  A    between atoms: _130  and  _133
REMARK   58  A    between atoms: _133  and  _134
REMARK   59  A    between atoms: _134  and  _135
REMARK   60  A    between atoms: _135  and  _136
REMARK   61  A    between atoms: _145  and  _147
REMARK   62  A    between atoms: _147  and  _148
REMARK   63  A    between atoms: _150  and  _152
REMARK   64  A    between atoms: _152  and  _153
REMARK   65  A    between atoms: _155  and  _157
REMARK   66  A    between atoms: _157  and  _158
REMARK   67  A    between atoms: _157  and  _160
REMARK   68  A    between atoms: _160  and  _161
REMARK   69  A    between atoms: _171  and  _173
REMARK   70  A    between atoms: _173  and  _174
REMARK   71  A    between atoms: _173  and  _176
REMARK   72  A    between atoms: _176  and  _177
REMARK   73  A    between atoms: _179  and  _181
REMARK   74  A    between atoms: _181  and  _182
REMARK   75  A    between atoms: _181  and  _184
REMARK   76  A    between atoms: _184  and  _185
REMARK   77  A    between atoms: _190  and  _191
REMARK   78  A    between atoms: _193  and  _195
REMARK   79  A    between atoms: _195  and  _196
REMARK   80  A    between atoms: _195  and  _198
REMARK   81  A    between atoms: _198  and  _199
REMARK   82  A    between atoms: _204  and  _205
REMARK   83  A    between atoms: _207  and  _209
REMARK   84  A    between atoms: _209  and  _210
REMARK   85  A    between atoms: _209  and  _212
REMARK   86  A    between atoms: _212  and  _213
REMARK   87  A    between atoms: _218  and  _219
REMARK   88  A    between atoms: _221  and  _223
REMARK   89  A    between atoms: _223  and  _224
REMARK   90  A    between atoms: _223  and  _226
REMARK   91  A    between atoms: _226  and  _227
REMARK   92  A    between atoms: _230  and  _232
REMARK   93  A    between atoms: _232  and  _233
REMARK   94  A    between atoms: _232  and  _235
REMARK   95  A    between atoms: _235  and  _236
REMARK   96  A    between atoms: _236  and  _237
REMARK   97  A    between atoms: _237  and  _238
REMARK   98  A    between atoms: _238  and  _239
REMARK   99  A    between atoms: _243  and  _245
REMARK  100  A    between atoms: _245  and  _246
REMARK  101  A    between atoms: _248  and  _250
REMARK  102  A    between atoms: _250  and  _251
REMARK  103  A    between atoms: _254  and  _255
REMARK  104  A    between atoms: _260  and  _262
REMARK  105  A    between atoms: _262  and  _263
REMARK  106  A    between atoms: _265  and  _267
REMARK  107  A    between atoms: _267  and  _268
REMARK  108  A    between atoms: _267  and  _270
REMARK  109  A    between atoms: _270  and  _271
REMARK  110  A    between atoms: _276  and  _278
REMARK  111  A    between atoms: _278  and  _279
REMARK  112  A    between atoms: _278  and  _281
REMARK  113  A    between atoms: _281  and  _282
REMARK  114  A    between atoms: _282  and  _283
REMARK  115  A    between atoms: _286  and  _288
REMARK  116  A    between atoms: _288  and  _289
REMARK  117  A    between atoms: _288  and  _291
REMARK  118  A    between atoms: _291  and  _292
REMARK  119  A    between atoms: _292  and  _293
REMARK  120  A    between atoms: _297  and  _298
REMARK  121  A    between atoms: _303  and  _305
REMARK  122  A    between atoms: _305  and  _306
REMARK  123  A    between atoms: _305  and  _308
REMARK  124  A    between atoms: _311  and  _313
REMARK  125  A    between atoms: _313  and  _314
REMARK  126  A    between atoms: _313  and  _316
REMARK  127  A    between atoms: _316  and  _317
REMARK  128  A    between atoms: _317  and  _318
REMARK  129  A    between atoms: _320  and  _322
REMARK  130  A    between atoms: _322  and  _323
REMARK  131  A    between atoms: _322  and  _325
REMARK  132  A    between atoms: _325  and  _326
REMARK  133  A    between atoms: _328  and  _330
REMARK  134  A    between atoms: _330  and  _331
REMARK  135  A    between atoms: _333  and  _335
REMARK  136  A    between atoms: _335  and  _336
REMARK  137  A    between atoms: _335  and  _338
REMARK  138  A    between atoms: _338  and  _339
REMARK  139  A    between atoms: _339  and  _340
REMARK  140  A    between atoms: _340  and  _341
REMARK  141  A    between atoms: _341  and  _342
REMARK  142  A    between atoms: _346  and  _348
REMARK  143  A    between atoms: _348  and  _349
REMARK  144  A    between atoms: _348  and  _351
REMARK  145  A    between atoms: _351  and  _352
REMARK  146  A    between atoms: _355  and  _357
REMARK  147  A    between atoms: _357  and  _358
REMARK  148  A    between atoms: _357  and  _360
REMARK  149  A    between atoms: _363  and  _365
REMARK  150  A    between atoms: _365  and  _366
REMARK  151  A    between atoms: _365  and  _368
REMARK  152  A    between atoms: _368  and  _369
REMARK  153  A    between atoms: _375  and  _377
REMARK  154  A    between atoms: _377  and  _378
REMARK  155  A    between atoms: _377  and  _380
REMARK  156  A    between atoms: _380  and  _381
REMARK  157  A    between atoms: _386  and  _387
REMARK  158  A    between atoms: _389  and  _391
REMARK  159  A    between atoms: _391  and  _392
REMARK  160  A    between atoms: _391  and  _394
REMARK  161  A    between atoms: _394  and  _395
REMARK  162  A    between atoms: _398  and  _400
REMARK  163  A    between atoms: _400  and  _401
REMARK  164  A    between atoms: _400  and  _403
REMARK  165  A    between atoms: _403  and  _404
REMARK  166  A    between atoms: _407  and  _409
REMARK  167  A    between atoms: _409  and  _410
REMARK  168  A    between atoms: _409  and  _412
REMARK  169  A    between atoms: _414  and  _416
REMARK  170  A    between atoms: _416  and  _417
REMARK  171  A    between atoms: _416  and  _419
REMARK  172  A    between atoms: _419  and  _420
REMARK  173  A    between atoms: _423  and  _425
REMARK  174  A    between atoms: _425  and  _426
REMARK  175  A    between atoms: _425  and  _428
REMARK  176  A    between atoms: _428  and  _429
REMARK  177  A    between atoms: _432  and  _434
REMARK  178  A    between atoms: _434  and  _435
REMARK  179  A    between atoms: _437  and  _439
REMARK  180  A    between atoms: _439  and  _440
REMARK  181  A    between atoms: _439  and  _442
REMARK  182  A    between atoms: _442  and  _443
REMARK  183  A    between atoms: _443  and  _444
REMARK  184  A    between atoms: _447  and  _449
REMARK  185  A    between atoms: _449  and  _450
REMARK  186  A    between atoms: _449  and  _452
REMARK  187  A    between atoms: _452  and  _453
REMARK  188  A    between atoms: _455  and  _457
REMARK  189  A    between atoms: _457  and  _458
REMARK  190  A    between atoms: _457  and  _460
REMARK  191  A    between atoms: _460  and  _461
REMARK  192  A    between atoms: _461  and  _462
REMARK  193  A    between atoms: _462  and  _463
REMARK  194  A    between atoms: _472  and  _474
REMARK  195  A    between atoms: _474  and  _475
REMARK  196  A    between atoms: _474  and  _477
REMARK  197  A    between atoms: _477  and  _478
REMARK  198  A    between atoms: _481  and  _483
REMARK  199  A    between atoms: _483  and  _484
REMARK  200  A    between atoms: _483  and  _486
REMARK  201  A    between atoms: _486  and  _487
REMARK  202  A    between atoms: _490  and  _492
REMARK  203  A    between atoms: _492  and  _493
REMARK  204  A    between atoms: _492  and  _495
REMARK  205  A    between atoms: _495  and  _496
REMARK  206  A    between atoms: _496  and  _497
REMARK  207  A    between atoms: _497  and  _498
REMARK  208  A    between atoms: _507  and  _509
REMARK  209  A    between atoms: _509  and  _510
REMARK  210  A    between atoms: _509  and  _512
REMARK  211  A    between atoms: _515  and  _517
REMARK  212  A    between atoms: _517  and  _518
REMARK  213  A    between atoms: _517  and  _520
REMARK  214  A    between atoms: _520  and  _521
REMARK  215  A    between atoms: _524  and  _526
REMARK  216  A    between atoms: _526  and  _527
REMARK  217  A    between atoms: _526  and  _529
REMARK  218  A    between atoms: _529  and  _530
REMARK  219  A    between atoms: _530  and  _531
REMARK  220  A    between atoms: _531  and  _532
REMARK  221  A    between atoms: _532  and  _533
REMARK  222  A    between atoms: _537  and  _539
REMARK  223  A    between atoms: _539  and  _540
REMARK  224  A    between atoms: _539  and  _542
REMARK  225  A    between atoms: _542  and  _543
REMARK  226  A    between atoms: _543  and  _544
REMARK  227  A    between atoms: _546  and  _548
REMARK  228  A    between atoms: _548  and  _549
REMARK  229  A    between atoms: _548  and  _551
REMARK  230  A    between atoms: _554  and  _556
REMARK  231  A    between atoms: _556  and  _557
REMARK  232  A    between atoms: _556  and  _559
REMARK  233  A    between atoms: _559  and  _560
REMARK  234  A    between atoms: _570  and  _572
REMARK  235  A    between atoms: _572  and  _573
REMARK  236  A    between atoms: _572  and  _575
REMARK  237  A    between atoms: _575  and  _576
REMARK  238  A    between atoms: _576  and  _577
REMARK  239  A    between atoms: _577  and  _578
REMARK  240  A    between atoms: _578  and  _579
REMARK  241  A    between atoms: _583  and  _585
REMARK  242  A    between atoms: _585  and  _586
REMARK  243  A    between atoms: _585  and  _588
REMARK  244  A    between atoms: _588  and  _589
REMARK  245  A    between atoms: _592  and  _594
REMARK  246  A    between atoms: _594  and  _595
REMARK  247  A    between atoms: _594  and  _597
REMARK  248  A    between atoms: _597  and  _598
REMARK  249  A    between atoms: _603  and  _604
REMARK                            x       y       z     vdW  Elec       q    Type
REMARK                         _______ _______ _______ _____ _____    ______ ____
ROOT
ATOM      1  O   HOH     1       5.607   0.647  46.932  0.00  0.00    +0.000 OA
ENDROOT
TORSDOF 0
REMARK  Name = ../refined-set-2016/3p8z/3p8z_pocket.pdb
REMARK  249 active torsions:
REMARK  status: ('A' for Active; 'I' for Inactive)
REMARK    1  A    between atoms: _1  and  _3
REMARK    2  A    between atoms: _3  and  _4
REMARK    3  A    between atoms: _7  and  _9
REMARK    4  A    between atoms: _9  and  _10
REMARK    5  A    between atoms: _9  and  _12
REMARK    6  A    between atoms: _15  and  _17
REMARK    7  A    between atoms: _17  and  _18
REMARK    8  A    between atoms: _17  and  _20
REMARK    9  A    between atoms: _20  and  _21
REMARK   10  A    between atoms: _23  and  _25
REMARK   11  A    between atoms: _25  and  _26
REMARK   12  A    between atoms: _25  and  _28
REMARK   13  A    between atoms: _28  and  _29
REMARK   14  A    between atoms: _29  and  _30
REMARK   15  A    between atoms: _30  and  _31
REMARK   16  A    between atoms: _40  and  _42
REMARK   17  A    between atoms: _42  and  _43
REMARK   18  A    between atoms: _45  and  _47
REMARK   19  A    between atoms: _47  and  _48
REMARK   20  A    between atoms: _47  and  _50
REMARK   21  A    between atoms: _50  and  _51
REMARK   22  A    between atoms: _53  and  _55
REMARK   23  A    between atoms: _55  and  _56
REMARK   24  A    between atoms: _59  and  _61
REMARK   25  A    between atoms: _61  and  _62
REMARK   26  A    between atoms: _61  and  _64
REMARK   27  A    between atoms: _64  and  _65
REMARK   28  A    between atoms: _65  and  _66
REMARK   29  A    between atoms: _66  and  _67
REMARK   30  A    between atoms: _67  and  _68
REMARK   31  A    between atoms: _72  and  _74
REMARK   32  A    between atoms: _74  and  _75
REMARK   33  A    between atoms: _74  and  _77
REMARK   34  A    between atoms: _77  and  _78
REMARK   35  A    between atoms: _81  and  _83
REMARK   36  A    between atoms: _83  and  _84
REMARK   37  A    between atoms: _83  and  _86
REMARK   38  A    between atoms: _86  and  _87
REMARK   39  A    between atoms: _87  and  _88
REMARK   40  A    between atoms: _93  and  _95
REMARK   41  A    between atoms: _95  and  _96
REMARK   42  A    between atoms: _95  and  _98
REMARK   43  A    between atoms: _98  and  _99
REMARK   44  A    between atoms: _102  and  _104
REMARK   45  A    between atoms: _104  and  _105
REMARK   46  A    between atoms: _104  and  _107
REMARK   47  A    between atoms: _107  and  _108
REMARK   48  A    between atoms: _111  and  _113
REMARK   49  A    between atoms: _113  and  _114
REMARK   50  A    between atoms: _116  and  _118
REMARK   51  A    between atoms: _118  and  _119
REMARK   52  A    between atoms: _118  and  _121
REMARK   53  A    between atoms: _123  and  _125
REMARK   54  A    between atoms: _125  and  _126
REMARK   55  A    between atoms: _128  and  _130
REMARK   56  A    between atoms: _130  and  _131
REMARK   57  A    between atoms: _130  and  _133
REMARK   58  A    between atoms: _133  and  _134
REMARK   59  A    between atoms: _134  and  _135
REMARK   60  A    between atoms: _135  and  _136
REMARK   61  A    between atoms: _145  and  _147
REMARK   62  A    between atoms: _147  and  _148
REMARK   63  A    between atoms: _150  and  _152
REMARK   64  A    between atoms: _152  and  _153
REMARK   65  A    between atoms: _155  and  _157
REMARK   66  A    between atoms: _157  and  _158
REMARK   67  A    between atoms: _157  and  _160
REMARK   68  A    between atoms: _160  and  _161
REMARK   69  A    between atoms: _171  and  _173
REMARK   70  A    between atoms: _173  and  _174
REMARK   71  A    between atoms: _173  and  _176
REMARK   72  A    between atoms: _176  and  _177
REMARK   73  A    between atoms: _179  and  _181
REMARK   74  A    between atoms: _181  and  _182
REMARK   75  A    between atoms: _181  and  _184
REMARK   76  A    between atoms: _184  and  _185
REMARK   77  A    between atoms: _190  and  _191
REMARK   78  A    between atoms: _193  and  _195
REMARK   79  A    between atoms: _195  and  _196
REMARK   80  A    between atoms: _195  and  _198
REMARK   81  A    between atoms: _198  and  _199
REMARK   82  A    between atoms: _204  and  _205
REMARK   83  A    between atoms: _207  and  _209
REMARK   84  A    between atoms: _209  and  _210
REMARK   85  A    between atoms: _209  and  _212
REMARK   86  A    between atoms: _212  and  _213
REMARK   87  A    between atoms: _218  and  _219
REMARK   88  A    between atoms: _221  and  _223
REMARK   89  A    between atoms: _223  and  _224
REMARK   90  A    between atoms: _223  and  _226
REMARK   91  A    between atoms: _226  and  _227
REMARK   92  A    between atoms: _230  and  _232
REMARK   93  A    between atoms: _232  and  _233
REMARK   94  A    between atoms: _232  and  _235
REMARK   95  A    between atoms: _235  and  _236
REMARK   96  A    between atoms: _236  and  _237
REMARK   97  A    between atoms: _237  and  _238
REMARK   98  A    between atoms: _238  and  _239
REMARK   99  A    between atoms: _243  and  _245
REMARK  100  A    between atoms: _245  and  _246
REMARK  101  A    between atoms: _248  and  _250
REMARK  102  A    between atoms: _250  and  _251
REMARK  103  A    between atoms: _254  and  _255
REMARK  104  A    between atoms: _260  and  _262
REMARK  105  A    between atoms: _262  and  _263
REMARK  106  A    between atoms: _265  and  _267
REMARK  107  A    between atoms: _267  and  _268
REMARK  108  A    between atoms: _267  and  _270
REMARK  109  A    between atoms: _270  and  _271
REMARK  110  A    between atoms: _276  and  _278
REMARK  111  A    between atoms: _278  and  _279
REMARK  112  A    between atoms: _278  and  _281
REMARK  113  A    between atoms: _281  and  _282
REMARK  114  A    between atoms: _282  and  _283
REMARK  115  A    between atoms: _286  and  _288
REMARK  116  A    between atoms: _288  and  _289
REMARK  117  A    between atoms: _288  and  _291
REMARK  118  A    between atoms: _291  and  _292
REMARK  119  A    between atoms: _292  and  _293
REMARK  120  A    between atoms: _297  and  _298
REMARK  121  A    between atoms: _303  and  _305
REMARK  122  A    between atoms: _305  and  _306
REMARK  123  A    between atoms: _305  and  _308
REMARK  124  A    between atoms: _311  and  _313
REMARK  125  A    between atoms: _313  and  _314
REMARK  126  A    between atoms: _313  and  _316
REMARK  127  A    between atoms: _316  and  _317
REMARK  128  A    between atoms: _317  and  _318
REMARK  129  A    between atoms: _320  and  _322
REMARK  130  A    between atoms: _322  and  _323
REMARK  131  A    between atoms: _322  and  _325
REMARK  132  A    between atoms: _325  and  _326
REMARK  133  A    between atoms: _328  and  _330
REMARK  134  A    between atoms: _330  and  _331
REMARK  135  A    between atoms: _333  and  _335
REMARK  136  A    between atoms: _335  and  _336
REMARK  137  A    between atoms: _335  and  _338
REMARK  138  A    between atoms: _338  and  _339
REMARK  139  A    between atoms: _339  and  _340
REMARK  140  A    between atoms: _340  and  _341
REMARK  141  A    between atoms: _341  and  _342
REMARK  142  A    between atoms: _346  and  _348
REMARK  143  A    between atoms: _348  and  _349
REMARK  144  A    between atoms: _348  and  _351
REMARK  145  A    between atoms: _351  and  _352
REMARK  146  A    between atoms: _355  and  _357
REMARK  147  A    between atoms: _357  and  _358
REMARK  148  A    between atoms: _357  and  _360
REMARK  149  A    between atoms: _363  and  _365
REMARK  150  A    between atoms: _365  and  _366
REMARK  151  A    between atoms: _365  and  _368
REMARK  152  A    between atoms: _368  and  _369
REMARK  153  A    between atoms: _375  and  _377
REMARK  154  A    between atoms: _377  and  _378
REMARK  155  A    between atoms: _377  and  _380
REMARK  156  A    between atoms: _380  and  _381
REMARK  157  A    between atoms: _386  and  _387
REMARK  158  A    between atoms: _389  and  _391
REMARK  159  A    between atoms: _391  and  _392
REMARK  160  A    between atoms: _391  and  _394
REMARK  161  A    between atoms: _394  and  _395
REMARK  162  A    between atoms: _398  and  _400
REMARK  163  A    between atoms: _400  and  _401
REMARK  164  A    between atoms: _400  and  _403
REMARK  165  A    between atoms: _403  and  _404
REMARK  166  A    between atoms: _407  and  _409
REMARK  167  A    between atoms: _409  and  _410
REMARK  168  A    between atoms: _409  and  _412
REMARK  169  A    between atoms: _414  and  _416
REMARK  170  A    between atoms: _416  and  _417
REMARK  171  A    between atoms: _416  and  _419
REMARK  172  A    between atoms: _419  and  _420
REMARK  173  A    between atoms: _423  and  _425
REMARK  174  A    between atoms: _425  and  _426
REMARK  175  A    between atoms: _425  and  _428
REMARK  176  A    between atoms: _428  and  _429
REMARK  177  A    between atoms: _432  and  _434
REMARK  178  A    between atoms: _434  and  _435
REMARK  179  A    between atoms: _437  and  _439
REMARK  180  A    between atoms: _439  and  _440
REMARK  181  A    between atoms: _439  and  _442
REMARK  182  A    between atoms: _442  and  _443
REMARK  183  A    between atoms: _443  and  _444
REMARK  184  A    between atoms: _447  and  _449
REMARK  185  A    between atoms: _449  and  _450
REMARK  186  A    between atoms: _449  and  _452
REMARK  187  A    between atoms: _452  and  _453
REMARK  188  A    between atoms: _455  and  _457
REMARK  189  A    between atoms: _457  and  _458
REMARK  190  A    between atoms: _457  and  _460
REMARK  191  A    between atoms: _460  and  _461
REMARK  192  A    between atoms: _461  and  _462
REMARK  193  A    between atoms: _462  and  _463
REMARK  194  A    between atoms: _472  and  _474
REMARK  195  A    between atoms: _474  and  _475
REMARK  196  A    between atoms: _474  and  _477
REMARK  197  A    between atoms: _477  and  _478
REMARK  198  A    between atoms: _481  and  _483
REMARK  199  A    between atoms: _483  and  _484
REMARK  200  A    between atoms: _483  and  _486
REMARK  201  A    between atoms: _486  and  _487
REMARK  202  A    between atoms: _490  and  _492
REMARK  203  A    between atoms: _492  and  _493
REMARK  204  A    between atoms: _492  and  _495
REMARK  205  A    between atoms: _495  and  _496
REMARK  206  A    between atoms: _496  and  _497
REMARK  207  A    between atoms: _497  and  _498
REMARK  208  A    between atoms: _507  and  _509
REMARK  209  A    between atoms: _509  and  _510
REMARK  210  A    between atoms: _509  and  _512
REMARK  211  A    between atoms: _515  and  _517
REMARK  212  A    between atoms: _517  and  _518
REMARK  213  A    between atoms: _517  and  _520
REMARK  214  A    between atoms: _520  and  _521
REMARK  215  A    between atoms: _524  and  _526
REMARK  216  A    between atoms: _526  and  _527
REMARK  217  A    between atoms: _526  and  _529
REMARK  218  A    between atoms: _529  and  _530
REMARK  219  A    between atoms: _530  and  _531
REMARK  220  A    between atoms: _531  and  _532
REMARK  221  A    between atoms: _532  and  _533
REMARK  222  A    between atoms: _537  and  _539
REMARK  223  A    between atoms: _539  and  _540
REMARK  224  A    between atoms: _539  and  _542
REMARK  225  A    between atoms: _542  and  _543
REMARK  226  A    between atoms: _543  and  _544
REMARK  227  A    between atoms: _546  and  _548
REMARK  228  A    between atoms: _548  and  _549
REMARK  229  A    between atoms: _548  and  _551
REMARK  230  A    between atoms: _554  and  _556
REMARK  231  A    between atoms: _556  and  _557
REMARK  232  A    between atoms: _556  and  _559
REMARK  233  A    between atoms: _559  and  _560
REMARK  234  A    between atoms: _570  and  _572
REMARK  235  A    between atoms: _572  and  _573
REMARK  236  A    between atoms: _572  and  _575
REMARK  237  A    between atoms: _575  and  _576
REMARK  238  A    between atoms: _576  and  _577
REMARK  239  A    between atoms: _577  and  _578
REMARK  240  A    between atoms: _578  and  _579
REMARK  241  A    between atoms: _583  and  _585
REMARK  242  A    between atoms: _585  and  _586
REMARK  243  A    between atoms: _585  and  _588
REMARK  244  A    between atoms: _588  and  _589
REMARK  245  A    between atoms: _592  and  _594
REMARK  246  A    between atoms: _594  and  _595
REMARK  247  A    between atoms: _594  and  _597
REMARK  248  A    between atoms: _597  and  _598
REMARK  249  A    between atoms: _603  and  _604
REMARK                            x       y       z     vdW  Elec       q    Type
REMARK                         _______ _______ _______ _____ _____    ______ ____
ROOT
ATOM      1  O   HOH     1      13.509 -10.919  48.799  0.00  0.00    +0.000 OA
ENDROOT
TORSDOF 0
REMARK  Name = ../refined-set-2016/3p8z/3p8z_pocket.pdb
REMARK  249 active torsions:
REMARK  status: ('A' for Active; 'I' for Inactive)
REMARK    1  A    between atoms: _1  and  _3
REMARK    2  A    between atoms: _3  and  _4
REMARK    3  A    between atoms: _7  and  _9
REMARK    4  A    between atoms: _9  and  _10
REMARK    5  A    between atoms: _9  and  _12
REMARK    6  A    between atoms: _15  and  _17
REMARK    7  A    between atoms: _17  and  _18
REMARK    8  A    between atoms: _17  and  _20
REMARK    9  A    between atoms: _20  and  _21
REMARK   10  A    between atoms: _23  and  _25
REMARK   11  A    between atoms: _25  and  _26
REMARK   12  A    between atoms: _25  and  _28
REMARK   13  A    between atoms: _28  and  _29
REMARK   14  A    between atoms: _29  and  _30
REMARK   15  A    between atoms: _30  and  _31
REMARK   16  A    between atoms: _40  and  _42
REMARK   17  A    between atoms: _42  and  _43
REMARK   18  A    between atoms: _45  and  _47
REMARK   19  A    between atoms: _47  and  _48
REMARK   20  A    between atoms: _47  and  _50
REMARK   21  A    between atoms: _50  and  _51
REMARK   22  A    between atoms: _53  and  _55
REMARK   23  A    between atoms: _55  and  _56
REMARK   24  A    between atoms: _59  and  _61
REMARK   25  A    between atoms: _61  and  _62
REMARK   26  A    between atoms: _61  and  _64
REMARK   27  A    between atoms: _64  and  _65
REMARK   28  A    between atoms: _65  and  _66
REMARK   29  A    between atoms: _66  and  _67
REMARK   30  A    between atoms: _67  and  _68
REMARK   31  A    between atoms: _72  and  _74
REMARK   32  A    between atoms: _74  and  _75
REMARK   33  A    between atoms: _74  and  _77
REMARK   34  A    between atoms: _77  and  _78
REMARK   35  A    between atoms: _81  and  _83
REMARK   36  A    between atoms: _83  and  _84
REMARK   37  A    between atoms: _83  and  _86
REMARK   38  A    between atoms: _86  and  _87
REMARK   39  A    between atoms: _87  and  _88
REMARK   40  A    between atoms: _93  and  _95
REMARK   41  A    between atoms: _95  and  _96
REMARK   42  A    between atoms: _95  and  _98
REMARK   43  A    between atoms: _98  and  _99
REMARK   44  A    between atoms: _102  and  _104
REMARK   45  A    between atoms: _104  and  _105
REMARK   46  A    between atoms: _104  and  _107
REMARK   47  A    between atoms: _107  and  _108
REMARK   48  A    between atoms: _111  and  _113
REMARK   49  A    between atoms: _113  and  _114
REMARK   50  A    between atoms: _116  and  _118
REMARK   51  A    between atoms: _118  and  _119
REMARK   52  A    between atoms: _118  and  _121
REMARK   53  A    between atoms: _123  and  _125
REMARK   54  A    between atoms: _125  and  _126
REMARK   55  A    between atoms: _128  and  _130
REMARK   56  A    between atoms: _130  and  _131
REMARK   57  A    between atoms: _130  and  _133
REMARK   58  A    between atoms: _133  and  _134
REMARK   59  A    between atoms: _134  and  _135
REMARK   60  A    between atoms: _135  and  _136
REMARK   61  A    between atoms: _145  and  _147
REMARK   62  A    between atoms: _147  and  _148
REMARK   63  A    between atoms: _150  and  _152
REMARK   64  A    between atoms: _152  and  _153
REMARK   65  A    between atoms: _155  and  _157
REMARK   66  A    between atoms: _157  and  _158
REMARK   67  A    between atoms: _157  and  _160
REMARK   68  A    between atoms: _160  and  _161
REMARK   69  A    between atoms: _171  and  _173
REMARK   70  A    between atoms: _173  and  _174
REMARK   71  A    between atoms: _173  and  _176
REMARK   72  A    between atoms: _176  and  _177
REMARK   73  A    between atoms: _179  and  _181
REMARK   74  A    between atoms: _181  and  _182
REMARK   75  A    between atoms: _181  and  _184
REMARK   76  A    between atoms: _184  and  _185
REMARK   77  A    between atoms: _190  and  _191
REMARK   78  A    between atoms: _193  and  _195
REMARK   79  A    between atoms: _195  and  _196
REMARK   80  A    between atoms: _195  and  _198
REMARK   81  A    between atoms: _198  and  _199
REMARK   82  A    between atoms: _204  and  _205
REMARK   83  A    between atoms: _207  and  _209
REMARK   84  A    between atoms: _209  and  _210
REMARK   85  A    between atoms: _209  and  _212
REMARK   86  A    between atoms: _212  and  _213
REMARK   87  A    between atoms: _218  and  _219
REMARK   88  A    between atoms: _221  and  _223
REMARK   89  A    between atoms: _223  and  _224
REMARK   90  A    between atoms: _223  and  _226
REMARK   91  A    between atoms: _226  and  _227
REMARK   92  A    between atoms: _230  and  _232
REMARK   93  A    between atoms: _232  and  _233
REMARK   94  A    between atoms: _232  and  _235
REMARK   95  A    between atoms: _235  and  _236
REMARK   96  A    between atoms: _236  and  _237
REMARK   97  A    between atoms: _237  and  _238
REMARK   98  A    between atoms: _238  and  _239
REMARK   99  A    between atoms: _243  and  _245
REMARK  100  A    between atoms: _245  and  _246
REMARK  101  A    between atoms: _248  and  _250
REMARK  102  A    between atoms: _250  and  _251
REMARK  103  A    between atoms: _254  and  _255
REMARK  104  A    between atoms: _260  and  _262
REMARK  105  A    between atoms: _262  and  _263
REMARK  106  A    between atoms: _265  and  _267
REMARK  107  A    between atoms: _267  and  _268
REMARK  108  A    between atoms: _267  and  _270
REMARK  109  A    between atoms: _270  and  _271
REMARK  110  A    between atoms: _276  and  _278
REMARK  111  A    between atoms: _278  and  _279
REMARK  112  A    between atoms: _278  and  _281
REMARK  113  A    between atoms: _281  and  _282
REMARK  114  A    between atoms: _282  and  _283
REMARK  115  A    between atoms: _286  and  _288
REMARK  116  A    between atoms: _288  and  _289
REMARK  117  A    between atoms: _288  and  _291
REMARK  118  A    between atoms: _291  and  _292
REMARK  119  A    between atoms: _292  and  _293
REMARK  120  A    between atoms: _297  and  _298
REMARK  121  A    between atoms: _303  and  _305
REMARK  122  A    between atoms: _305  and  _306
REMARK  123  A    between atoms: _305  and  _308
REMARK  124  A    between atoms: _311  and  _313
REMARK  125  A    between atoms: _313  and  _314
REMARK  126  A    between atoms: _313  and  _316
REMARK  127  A    between atoms: _316  and  _317
REMARK  128  A    between atoms: _317  and  _318
REMARK  129  A    between atoms: _320  and  _322
REMARK  130  A    between atoms: _322  and  _323
REMARK  131  A    between atoms: _322  and  _325
REMARK  132  A    between atoms: _325  and  _326
REMARK  133  A    between atoms: _328  and  _330
REMARK  134  A    between atoms: _330  and  _331
REMARK  135  A    between atoms: _333  and  _335
REMARK  136  A    between atoms: _335  and  _336
REMARK  137  A    between atoms: _335  and  _338
REMARK  138  A    between atoms: _338  and  _339
REMARK  139  A    between atoms: _339  and  _340
REMARK  140  A    between atoms: _340  and  _341
REMARK  141  A    between atoms: _341  and  _342
REMARK  142  A    between atoms: _346  and  _348
REMARK  143  A    between atoms: _348  and  _349
REMARK  144  A    between atoms: _348  and  _351
REMARK  145  A    between atoms: _351  and  _352
REMARK  146  A    between atoms: _355  and  _357
REMARK  147  A    between atoms: _357  and  _358
REMARK  148  A    between atoms: _357  and  _360
REMARK  149  A    between atoms: _363  and  _365
REMARK  150  A    between atoms: _365  and  _366
REMARK  151  A    between atoms: _365  and  _368
REMARK  152  A    between atoms: _368  and  _369
REMARK  153  A    between atoms: _375  and  _377
REMARK  154  A    between atoms: _377  and  _378
REMARK  155  A    between atoms: _377  and  _380
REMARK  156  A    between atoms: _380  and  _381
REMARK  157  A    between atoms: _386  and  _387
REMARK  158  A    between atoms: _389  and  _391
REMARK  159  A    between atoms: _391  and  _392
REMARK  160  A    between atoms: _391  and  _394
REMARK  161  A    between atoms: _394  and  _395
REMARK  162  A    between atoms: _398  and  _400
REMARK  163  A    between atoms: _400  and  _401
REMARK  164  A    between atoms: _400  and  _403
REMARK  165  A    between atoms: _403  and  _404
REMARK  166  A    between atoms: _407  and  _409
REMARK  167  A    between atoms: _409  and  _410
REMARK  168  A    between atoms: _409  and  _412
REMARK  169  A    between atoms: _414  and  _416
REMARK  170  A    between atoms: _416  and  _417
REMARK  171  A    between atoms: _416  and  _419
REMARK  172  A    between atoms: _419  and  _420
REMARK  173  A    between atoms: _423  and  _425
REMARK  174  A    between atoms: _425  and  _426
REMARK  175  A    between atoms: _425  and  _428
REMARK  176  A    between atoms: _428  and  _429
REMARK  177  A    between atoms: _432  and  _434
REMARK  178  A    between atoms: _434  and  _435
REMARK  179  A    between atoms: _437  and  _439
REMARK  180  A    between atoms: _439  and  _440
REMARK  181  A    between atoms: _439  and  _442
REMARK  182  A    between atoms: _442  and  _443
REMARK  183  A    between atoms: _443  and  _444
REMARK  184  A    between atoms: _447  and  _449
REMARK  185  A    between atoms: _449  and  _450
REMARK  186  A    between atoms: _449  and  _452
REMARK  187  A    between atoms: _452  and  _453
REMARK  188  A    between atoms: _455  and  _457
REMARK  189  A    between atoms: _457  and  _458
REMARK  190  A    between atoms: _457  and  _460
REMARK  191  A    between atoms: _460  and  _461
REMARK  192  A    between atoms: _461  and  _462
REMARK  193  A    between atoms: _462  and  _463
REMARK  194  A    between atoms: _472  and  _474
REMARK  195  A    between atoms: _474  and  _475
REMARK  196  A    between atoms: _474  and  _477
REMARK  197  A    between atoms: _477  and  _478
REMARK  198  A    between atoms: _481  and  _483
REMARK  199  A    between atoms: _483  and  _484
REMARK  200  A    between atoms: _483  and  _486
REMARK  201  A    between atoms: _486  and  _487
REMARK  202  A    between atoms: _490  and  _492
REMARK  203  A    between atoms: _492  and  _493
REMARK  204  A    between atoms: _492  and  _495
REMARK  205  A    between atoms: _495  and  _496
REMARK  206  A    between atoms: _496  and  _497
REMARK  207  A    between atoms: _497  and  _498
REMARK  208  A    between atoms: _507  and  _509
REMARK  209  A    between atoms: _509  and  _510
REMARK  210  A    between atoms: _509  and  _512
REMARK  211  A    between atoms: _515  and  _517
REMARK  212  A    between atoms: _517  and  _518
REMARK  213  A    between atoms: _517  and  _520
REMARK  214  A    between atoms: _520  and  _521
REMARK  215  A    between atoms: _524  and  _526
REMARK  216  A    between atoms: _526  and  _527
REMARK  217  A    between atoms: _526  and  _529
REMARK  218  A    between atoms: _529  and  _530
REMARK  219  A    between atoms: _530  and  _531
REMARK  220  A    between atoms: _531  and  _532
REMARK  221  A    between atoms: _532  and  _533
REMARK  222  A    between atoms: _537  and  _539
REMARK  223  A    between atoms: _539  and  _540
REMARK  224  A    between atoms: _539  and  _542
REMARK  225  A    between atoms: _542  and  _543
REMARK  226  A    between atoms: _543  and  _544
REMARK  227  A    between atoms: _546  and  _548
REMARK  228  A    between atoms: _548  and  _549
REMARK  229  A    between atoms: _548  and  _551
REMARK  230  A    between atoms: _554  and  _556
REMARK  231  A    between atoms: _556  and  _557
REMARK  232  A    between atoms: _556  and  _559
REMARK  233  A    between atoms: _559  and  _560
REMARK  234  A    between atoms: _570  and  _572
REMARK  235  A    between atoms: _572  and  _573
REMARK  236  A    between atoms: _572  and  _575
REMARK  237  A    between atoms: _575  and  _576
REMARK  238  A    between atoms: _576  and  _577
REMARK  239  A    between atoms: _577  and  _578
REMARK  240  A    between atoms: _578  and  _579
REMARK  241  A    between atoms: _583  and  _585
REMARK  242  A    between atoms: _585  and  _586
REMARK  243  A    between atoms: _585  and  _588
REMARK  244  A    between atoms: _588  and  _589
REMARK  245  A    between atoms: _592  and  _594
REMARK  246  A    between atoms: _594  and  _595
REMARK  247  A    between atoms: _594  and  _597
REMARK  248  A    between atoms: _597  and  _598
REMARK  249  A    between atoms: _603  and  _604
REMARK                            x       y       z     vdW  Elec       q    Type
REMARK                         _______ _______ _______ _____ _____    ______ ____
ROOT
ATOM      1  O   HOH     1      10.622  -7.547  43.052  0.00  0.00    +0.000 OA
ENDROOT
TORSDOF 0
REMARK  Name = ../refined-set-2016/3p8z/3p8z_pocket.pdb
REMARK  249 active torsions:
REMARK  status: ('A' for Active; 'I' for Inactive)
REMARK    1  A    between atoms: _1  and  _3
REMARK    2  A    between atoms: _3  and  _4
REMARK    3  A    between atoms: _7  and  _9
REMARK    4  A    between atoms: _9  and  _10
REMARK    5  A    between atoms: _9  and  _12
REMARK    6  A    between atoms: _15  and  _17
REMARK    7  A    between atoms: _17  and  _18
REMARK    8  A    between atoms: _17  and  _20
REMARK    9  A    between atoms: _20  and  _21
REMARK   10  A    between atoms: _23  and  _25
REMARK   11  A    between atoms: _25  and  _26
REMARK   12  A    between atoms: _25  and  _28
REMARK   13  A    between atoms: _28  and  _29
REMARK   14  A    between atoms: _29  and  _30
REMARK   15  A    between atoms: _30  and  _31
REMARK   16  A    between atoms: _40  and  _42
REMARK   17  A    between atoms: _42  and  _43
REMARK   18  A    between atoms: _45  and  _47
REMARK   19  A    between atoms: _47  and  _48
REMARK   20  A    between atoms: _47  and  _50
REMARK   21  A    between atoms: _50  and  _51
REMARK   22  A    between atoms: _53  and  _55
REMARK   23  A    between atoms: _55  and  _56
REMARK   24  A    between atoms: _59  and  _61
REMARK   25  A    between atoms: _61  and  _62
REMARK   26  A    between atoms: _61  and  _64
REMARK   27  A    between atoms: _64  and  _65
REMARK   28  A    between atoms: _65  and  _66
REMARK   29  A    between atoms: _66  and  _67
REMARK   30  A    between atoms: _67  and  _68
REMARK   31  A    between atoms: _72  and  _74
REMARK   32  A    between atoms: _74  and  _75
REMARK   33  A    between atoms: _74  and  _77
REMARK   34  A    between atoms: _77  and  _78
REMARK   35  A    between atoms: _81  and  _83
REMARK   36  A    between atoms: _83  and  _84
REMARK   37  A    between atoms: _83  and  _86
REMARK   38  A    between atoms: _86  and  _87
REMARK   39  A    between atoms: _87  and  _88
REMARK   40  A    between atoms: _93  and  _95
REMARK   41  A    between atoms: _95  and  _96
REMARK   42  A    between atoms: _95  and  _98
REMARK   43  A    between atoms: _98  and  _99
REMARK   44  A    between atoms: _102  and  _104
REMARK   45  A    between atoms: _104  and  _105
REMARK   46  A    between atoms: _104  and  _107
REMARK   47  A    between atoms: _107  and  _108
REMARK   48  A    between atoms: _111  and  _113
REMARK   49  A    between atoms: _113  and  _114
REMARK   50  A    between atoms: _116  and  _118
REMARK   51  A    between atoms: _118  and  _119
REMARK   52  A    between atoms: _118  and  _121
REMARK   53  A    between atoms: _123  and  _125
REMARK   54  A    between atoms: _125  and  _126
REMARK   55  A    between atoms: _128  and  _130
REMARK   56  A    between atoms: _130  and  _131
REMARK   57  A    between atoms: _130  and  _133
REMARK   58  A    between atoms: _133  and  _134
REMARK   59  A    between atoms: _134  and  _135
REMARK   60  A    between atoms: _135  and  _136
REMARK   61  A    between atoms: _145  and  _147
REMARK   62  A    between atoms: _147  and  _148
REMARK   63  A    between atoms: _150  and  _152
REMARK   64  A    between atoms: _152  and  _153
REMARK   65  A    between atoms: _155  and  _157
REMARK   66  A    between atoms: _157  and  _158
REMARK   67  A    between atoms: _157  and  _160
REMARK   68  A    between atoms: _160  and  _161
REMARK   69  A    between atoms: _171  and  _173
REMARK   70  A    between atoms: _173  and  _174
REMARK   71  A    between atoms: _173  and  _176
REMARK   72  A    between atoms: _176  and  _177
REMARK   73  A    between atoms: _179  and  _181
REMARK   74  A    between atoms: _181  and  _182
REMARK   75  A    between atoms: _181  and  _184
REMARK   76  A    between atoms: _184  and  _185
REMARK   77  A    between atoms: _190  and  _191
REMARK   78  A    between atoms: _193  and  _195
REMARK   79  A    between atoms: _195  and  _196
REMARK   80  A    between atoms: _195  and  _198
REMARK   81  A    between atoms: _198  and  _199
REMARK   82  A    between atoms: _204  and  _205
REMARK   83  A    between atoms: _207  and  _209
REMARK   84  A    between atoms: _209  and  _210
REMARK   85  A    between atoms: _209  and  _212
REMARK   86  A    between atoms: _212  and  _213
REMARK   87  A    between atoms: _218  and  _219
REMARK   88  A    between atoms: _221  and  _223
REMARK   89  A    between atoms: _223  and  _224
REMARK   90  A    between atoms: _223  and  _226
REMARK   91  A    between atoms: _226  and  _227
REMARK   92  A    between atoms: _230  and  _232
REMARK   93  A    between atoms: _232  and  _233
REMARK   94  A    between atoms: _232  and  _235
REMARK   95  A    between atoms: _235  and  _236
REMARK   96  A    between atoms: _236  and  _237
REMARK   97  A    between atoms: _237  and  _238
REMARK   98  A    between atoms: _238  and  _239
REMARK   99  A    between atoms: _243  and  _245
REMARK  100  A    between atoms: _245  and  _246
REMARK  101  A    between atoms: _248  and  _250
REMARK  102  A    between atoms: _250  and  _251
REMARK  103  A    between atoms: _254  and  _255
REMARK  104  A    between atoms: _260  and  _262
REMARK  105  A    between atoms: _262  and  _263
REMARK  106  A    between atoms: _265  and  _267
REMARK  107  A    between atoms: _267  and  _268
REMARK  108  A    between atoms: _267  and  _270
REMARK  109  A    between atoms: _270  and  _271
REMARK  110  A    between atoms: _276  and  _278
REMARK  111  A    between atoms: _278  and  _279
REMARK  112  A    between atoms: _278  and  _281
REMARK  113  A    between atoms: _281  and  _282
REMARK  114  A    between atoms: _282  and  _283
REMARK  115  A    between atoms: _286  and  _288
REMARK  116  A    between atoms: _288  and  _289
REMARK  117  A    between atoms: _288  and  _291
REMARK  118  A    between atoms: _291  and  _292
REMARK  119  A    between atoms: _292  and  _293
REMARK  120  A    between atoms: _297  and  _298
REMARK  121  A    between atoms: _303  and  _305
REMARK  122  A    between atoms: _305  and  _306
REMARK  123  A    between atoms: _305  and  _308
REMARK  124  A    between atoms: _311  and  _313
REMARK  125  A    between atoms: _313  and  _314
REMARK  126  A    between atoms: _313  and  _316
REMARK  127  A    between atoms: _316  and  _317
REMARK  128  A    between atoms: _317  and  _318
REMARK  129  A    between atoms: _320  and  _322
REMARK  130  A    between atoms: _322  and  _323
REMARK  131  A    between atoms: _322  and  _325
REMARK  132  A    between atoms: _325  and  _326
REMARK  133  A    between atoms: _328  and  _330
REMARK  134  A    between atoms: _330  and  _331
REMARK  135  A    between atoms: _333  and  _335
REMARK  136  A    between atoms: _335  and  _336
REMARK  137  A    between atoms: _335  and  _338
REMARK  138  A    between atoms: _338  and  _339
REMARK  139  A    between atoms: _339  and  _340
REMARK  140  A    between atoms: _340  and  _341
REMARK  141  A    between atoms: _341  and  _342
REMARK  142  A    between atoms: _346  and  _348
REMARK  143  A    between atoms: _348  and  _349
REMARK  144  A    between atoms: _348  and  _351
REMARK  145  A    between atoms: _351  and  _352
REMARK  146  A    between atoms: _355  and  _357
REMARK  147  A    between atoms: _357  and  _358
REMARK  148  A    between atoms: _357  and  _360
REMARK  149  A    between atoms: _363  and  _365
REMARK  150  A    between atoms: _365  and  _366
REMARK  151  A    between atoms: _365  and  _368
REMARK  152  A    between atoms: _368  and  _369
REMARK  153  A    between atoms: _375  and  _377
REMARK  154  A    between atoms: _377  and  _378
REMARK  155  A    between atoms: _377  and  _380
REMARK  156  A    between atoms: _380  and  _381
REMARK  157  A    between atoms: _386  and  _387
REMARK  158  A    between atoms: _389  and  _391
REMARK  159  A    between atoms: _391  and  _392
REMARK  160  A    between atoms: _391  and  _394
REMARK  161  A    between atoms: _394  and  _395
REMARK  162  A    between atoms: _398  and  _400
REMARK  163  A    between atoms: _400  and  _401
REMARK  164  A    between atoms: _400  and  _403
REMARK  165  A    between atoms: _403  and  _404
REMARK  166  A    between atoms: _407  and  _409
REMARK  167  A    between atoms: _409  and  _410
REMARK  168  A    between atoms: _409  and  _412
REMARK  169  A    between atoms: _414  and  _416
REMARK  170  A    between atoms: _416  and  _417
REMARK  171  A    between atoms: _416  and  _419
REMARK  172  A    between atoms: _419  and  _420
REMARK  173  A    between atoms: _423  and  _425
REMARK  174  A    between atoms: _425  and  _426
REMARK  175  A    between atoms: _425  and  _428
REMARK  176  A    between atoms: _428  and  _429
REMARK  177  A    between atoms: _432  and  _434
REMARK  178  A    between atoms: _434  and  _435
REMARK  179  A    between atoms: _437  and  _439
REMARK  180  A    between atoms: _439  and  _440
REMARK  181  A    between atoms: _439  and  _442
REMARK  182  A    between atoms: _442  and  _443
REMARK  183  A    between atoms: _443  and  _444
REMARK  184  A    between atoms: _447  and  _449
REMARK  185  A    between atoms: _449  and  _450
REMARK  186  A    between atoms: _449  and  _452
REMARK  187  A    between atoms: _452  and  _453
REMARK  188  A    between atoms: _455  and  _457
REMARK  189  A    between atoms: _457  and  _458
REMARK  190  A    between atoms: _457  and  _460
REMARK  191  A    between atoms: _460  and  _461
REMARK  192  A    between atoms: _461  and  _462
REMARK  193  A    between atoms: _462  and  _463
REMARK  194  A    between atoms: _472  and  _474
REMARK  195  A    between atoms: _474  and  _475
REMARK  196  A    between atoms: _474  and  _477
REMARK  197  A    between atoms: _477  and  _478
REMARK  198  A    between atoms: _481  and  _483
REMARK  199  A    between atoms: _483  and  _484
REMARK  200  A    between atoms: _483  and  _486
REMARK  201  A    between atoms: _486  and  _487
REMARK  202  A    between atoms: _490  and  _492
REMARK  203  A    between atoms: _492  and  _493
REMARK  204  A    between atoms: _492  and  _495
REMARK  205  A    between atoms: _495  and  _496
REMARK  206  A    between atoms: _496  and  _497
REMARK  207  A    between atoms: _497  and  _498
REMARK  208  A    between atoms: _507  and  _509
REMARK  209  A    between atoms: _509  and  _510
REMARK  210  A    between atoms: _509  and  _512
REMARK  211  A    between atoms: _515  and  _517
REMARK  212  A    between atoms: _517  and  _518
REMARK  213  A    between atoms: _517  and  _520
REMARK  214  A    between atoms: _520  and  _521
REMARK  215  A    between atoms: _524  and  _526
REMARK  216  A    between atoms: _526  and  _527
REMARK  217  A    between atoms: _526  and  _529
REMARK  218  A    between atoms: _529  and  _530
REMARK  219  A    between atoms: _530  and  _531
REMARK  220  A    between atoms: _531  and  _532
REMARK  221  A    between atoms: _532  and  _533
REMARK  222  A    between atoms: _537  and  _539
REMARK  223  A    between atoms: _539  and  _540
REMARK  224  A    between atoms: _539  and  _542
REMARK  225  A    between atoms: _542  and  _543
REMARK  226  A    between atoms: _543  and  _544
REMARK  227  A    between atoms: _546  and  _548
REMARK  228  A    between atoms: _548  and  _549
REMARK  229  A    between atoms: _548  and  _551
REMARK  230  A    between atoms: _554  and  _556
REMARK  231  A    between atoms: _556  and  _557
REMARK  232  A    between atoms: _556  and  _559
REMARK  233  A    between atoms: _559  and  _560
REMARK  234  A    between atoms: _570  and  _572
REMARK  235  A    between atoms: _572  and  _573
REMARK  236  A    between atoms: _572  and  _575
REMARK  237  A    between atoms: _575  and  _576
REMARK  238  A    between atoms: _576  and  _577
REMARK  239  A    between atoms: _577  and  _578
REMARK  240  A    between atoms: _578  and  _579
REMARK  241  A    between atoms: _583  and  _585
REMARK  242  A    between atoms: _585  and  _586
REMARK  243  A    between atoms: _585  and  _588
REMARK  244  A    between atoms: _588  and  _589
REMARK  245  A    between atoms: _592  and  _594
REMARK  246  A    between atoms: _594  and  _595
REMARK  247  A    between atoms: _594  and  _597
REMARK  248  A    between atoms: _597  and  _598
REMARK  249  A    between atoms: _603  and  _604
REMARK                            x       y       z     vdW  Elec       q    Type
REMARK                         _______ _______ _______ _____ _____    ______ ____
ROOT
ATOM      1  O   HOH     1       1.726   4.919  45.570  0.00  0.00    +0.000 OA
ENDROOT
TORSDOF 0
REMARK  Name = ../refined-set-2016/3p8z/3p8z_pocket.pdb
REMARK  249 active torsions:
REMARK  status: ('A' for Active; 'I' for Inactive)
REMARK    1  A    between atoms: _1  and  _3
REMARK    2  A    between atoms: _3  and  _4
REMARK    3  A    between atoms: _7  and  _9
REMARK    4  A    between atoms: _9  and  _10
REMARK    5  A    between atoms: _9  and  _12
REMARK    6  A    between atoms: _15  and  _17
REMARK    7  A    between atoms: _17  and  _18
REMARK    8  A    between atoms: _17  and  _20
REMARK    9  A    between atoms: _20  and  _21
REMARK   10  A    between atoms: _23  and  _25
REMARK   11  A    between atoms: _25  and  _26
REMARK   12  A    between atoms: _25  and  _28
REMARK   13  A    between atoms: _28  and  _29
REMARK   14  A    between atoms: _29  and  _30
REMARK   15  A    between atoms: _30  and  _31
REMARK   16  A    between atoms: _40  and  _42
REMARK   17  A    between atoms: _42  and  _43
REMARK   18  A    between atoms: _45  and  _47
REMARK   19  A    between atoms: _47  and  _48
REMARK   20  A    between atoms: _47  and  _50
REMARK   21  A    between atoms: _50  and  _51
REMARK   22  A    between atoms: _53  and  _55
REMARK   23  A    between atoms: _55  and  _56
REMARK   24  A    between atoms: _59  and  _61
REMARK   25  A    between atoms: _61  and  _62
REMARK   26  A    between atoms: _61  and  _64
REMARK   27  A    between atoms: _64  and  _65
REMARK   28  A    between atoms: _65  and  _66
REMARK   29  A    between atoms: _66  and  _67
REMARK   30  A    between atoms: _67  and  _68
REMARK   31  A    between atoms: _72  and  _74
REMARK   32  A    between atoms: _74  and  _75
REMARK   33  A    between atoms: _74  and  _77
REMARK   34  A    between atoms: _77  and  _78
REMARK   35  A    between atoms: _81  and  _83
REMARK   36  A    between atoms: _83  and  _84
REMARK   37  A    between atoms: _83  and  _86
REMARK   38  A    between atoms: _86  and  _87
REMARK   39  A    between atoms: _87  and  _88
REMARK   40  A    between atoms: _93  and  _95
REMARK   41  A    between atoms: _95  and  _96
REMARK   42  A    between atoms: _95  and  _98
REMARK   43  A    between atoms: _98  and  _99
REMARK   44  A    between atoms: _102  and  _104
REMARK   45  A    between atoms: _104  and  _105
REMARK   46  A    between atoms: _104  and  _107
REMARK   47  A    between atoms: _107  and  _108
REMARK   48  A    between atoms: _111  and  _113
REMARK   49  A    between atoms: _113  and  _114
REMARK   50  A    between atoms: _116  and  _118
REMARK   51  A    between atoms: _118  and  _119
REMARK   52  A    between atoms: _118  and  _121
REMARK   53  A    between atoms: _123  and  _125
REMARK   54  A    between atoms: _125  and  _126
REMARK   55  A    between atoms: _128  and  _130
REMARK   56  A    between atoms: _130  and  _131
REMARK   57  A    between atoms: _130  and  _133
REMARK   58  A    between atoms: _133  and  _134
REMARK   59  A    between atoms: _134  and  _135
REMARK   60  A    between atoms: _135  and  _136
REMARK   61  A    between atoms: _145  and  _147
REMARK   62  A    between atoms: _147  and  _148
REMARK   63  A    between atoms: _150  and  _152
REMARK   64  A    between atoms: _152  and  _153
REMARK   65  A    between atoms: _155  and  _157
REMARK   66  A    between atoms: _157  and  _158
REMARK   67  A    between atoms: _157  and  _160
REMARK   68  A    between atoms: _160  and  _161
REMARK   69  A    between atoms: _171  and  _173
REMARK   70  A    between atoms: _173  and  _174
REMARK   71  A    between atoms: _173  and  _176
REMARK   72  A    between atoms: _176  and  _177
REMARK   73  A    between atoms: _179  and  _181
REMARK   74  A    between atoms: _181  and  _182
REMARK   75  A    between atoms: _181  and  _184
REMARK   76  A    between atoms: _184  and  _185
REMARK   77  A    between atoms: _190  and  _191
REMARK   78  A    between atoms: _193  and  _195
REMARK   79  A    between atoms: _195  and  _196
REMARK   80  A    between atoms: _195  and  _198
REMARK   81  A    between atoms: _198  and  _199
REMARK   82  A    between atoms: _204  and  _205
REMARK   83  A    between atoms: _207  and  _209
REMARK   84  A    between atoms: _209  and  _210
REMARK   85  A    between atoms: _209  and  _212
REMARK   86  A    between atoms: _212  and  _213
REMARK   87  A    between atoms: _218  and  _219
REMARK   88  A    between atoms: _221  and  _223
REMARK   89  A    between atoms: _223  and  _224
REMARK   90  A    between atoms: _223  and  _226
REMARK   91  A    between atoms: _226  and  _227
REMARK   92  A    between atoms: _230  and  _232
REMARK   93  A    between atoms: _232  and  _233
REMARK   94  A    between atoms: _232  and  _235
REMARK   95  A    between atoms: _235  and  _236
REMARK   96  A    between atoms: _236  and  _237
REMARK   97  A    between atoms: _237  and  _238
REMARK   98  A    between atoms: _238  and  _239
REMARK   99  A    between atoms: _243  and  _245
REMARK  100  A    between atoms: _245  and  _246
REMARK  101  A    between atoms: _248  and  _250
REMARK  102  A    between atoms: _250  and  _251
REMARK  103  A    between atoms: _254  and  _255
REMARK  104  A    between atoms: _260  and  _262
REMARK  105  A    between atoms: _262  and  _263
REMARK  106  A    between atoms: _265  and  _267
REMARK  107  A    between atoms: _267  and  _268
REMARK  108  A    between atoms: _267  and  _270
REMARK  109  A    between atoms: _270  and  _271
REMARK  110  A    between atoms: _276  and  _278
REMARK  111  A    between atoms: _278  and  _279
REMARK  112  A    between atoms: _278  and  _281
REMARK  113  A    between atoms: _281  and  _282
REMARK  114  A    between atoms: _282  and  _283
REMARK  115  A    between atoms: _286  and  _288
REMARK  116  A    between atoms: _288  and  _289
REMARK  117  A    between atoms: _288  and  _291
REMARK  118  A    between atoms: _291  and  _292
REMARK  119  A    between atoms: _292  and  _293
REMARK  120  A    between atoms: _297  and  _298
REMARK  121  A    between atoms: _303  and  _305
REMARK  122  A    between atoms: _305  and  _306
REMARK  123  A    between atoms: _305  and  _308
REMARK  124  A    between atoms: _311  and  _313
REMARK  125  A    between atoms: _313  and  _314
REMARK  126  A    between atoms: _313  and  _316
REMARK  127  A    between atoms: _316  and  _317
REMARK  128  A    between atoms: _317  and  _318
REMARK  129  A    between atoms: _320  and  _322
REMARK  130  A    between atoms: _322  and  _323
REMARK  131  A    between atoms: _322  and  _325
REMARK  132  A    between atoms: _325  and  _326
REMARK  133  A    between atoms: _328  and  _330
REMARK  134  A    between atoms: _330  and  _331
REMARK  135  A    between atoms: _333  and  _335
REMARK  136  A    between atoms: _335  and  _336
REMARK  137  A    between atoms: _335  and  _338
REMARK  138  A    between atoms: _338  and  _339
REMARK  139  A    between atoms: _339  and  _340
REMARK  140  A    between atoms: _340  and  _341
REMARK  141  A    between atoms: _341  and  _342
REMARK  142  A    between atoms: _346  and  _348
REMARK  143  A    between atoms: _348  and  _349
REMARK  144  A    between atoms: _348  and  _351
REMARK  145  A    between atoms: _351  and  _352
REMARK  146  A    between atoms: _355  and  _357
REMARK  147  A    between atoms: _357  and  _358
REMARK  148  A    between atoms: _357  and  _360
REMARK  149  A    between atoms: _363  and  _365
REMARK  150  A    between atoms: _365  and  _366
REMARK  151  A    between atoms: _365  and  _368
REMARK  152  A    between atoms: _368  and  _369
REMARK  153  A    between atoms: _375  and  _377
REMARK  154  A    between atoms: _377  and  _378
REMARK  155  A    between atoms: _377  and  _380
REMARK  156  A    between atoms: _380  and  _381
REMARK  157  A    between atoms: _386  and  _387
REMARK  158  A    between atoms: _389  and  _391
REMARK  159  A    between atoms: _391  and  _392
REMARK  160  A    between atoms: _391  and  _394
REMARK  161  A    between atoms: _394  and  _395
REMARK  162  A    between atoms: _398  and  _400
REMARK  163  A    between atoms: _400  and  _401
REMARK  164  A    between atoms: _400  and  _403
REMARK  165  A    between atoms: _403  and  _404
REMARK  166  A    between atoms: _407  and  _409
REMARK  167  A    between atoms: _409  and  _410
REMARK  168  A    between atoms: _409  and  _412
REMARK  169  A    between atoms: _414  and  _416
REMARK  170  A    between atoms: _416  and  _417
REMARK  171  A    between atoms: _416  and  _419
REMARK  172  A    between atoms: _419  and  _420
REMARK  173  A    between atoms: _423  and  _425
REMARK  174  A    between atoms: _425  and  _426
REMARK  175  A    between atoms: _425  and  _428
REMARK  176  A    between atoms: _428  and  _429
REMARK  177  A    between atoms: _432  and  _434
REMARK  178  A    between atoms: _434  and  _435
REMARK  179  A    between atoms: _437  and  _439
REMARK  180  A    between atoms: _439  and  _440
REMARK  181  A    between atoms: _439  and  _442
REMARK  182  A    between atoms: _442  and  _443
REMARK  183  A    between atoms: _443  and  _444
REMARK  184  A    between atoms: _447  and  _449
REMARK  185  A    between atoms: _449  and  _450
REMARK  186  A    between atoms: _449  and  _452
REMARK  187  A    between atoms: _452  and  _453
REMARK  188  A    between atoms: _455  and  _457
REMARK  189  A    between atoms: _457  and  _458
REMARK  190  A    between atoms: _457  and  _460
REMARK  191  A    between atoms: _460  and  _461
REMARK  192  A    between atoms: _461  and  _462
REMARK  193  A    between atoms: _462  and  _463
REMARK  194  A    between atoms: _472  and  _474
REMARK  195  A    between atoms: _474  and  _475
REMARK  196  A    between atoms: _474  and  _477
REMARK  197  A    between atoms: _477  and  _478
REMARK  198  A    between atoms: _481  and  _483
REMARK  199  A    between atoms: _483  and  _484
REMARK  200  A    between atoms: _483  and  _486
REMARK  201  A    between atoms: _486  and  _487
REMARK  202  A    between atoms: _490  and  _492
REMARK  203  A    between atoms: _492  and  _493
REMARK  204  A    between atoms: _492  and  _495
REMARK  205  A    between atoms: _495  and  _496
REMARK  206  A    between atoms: _496  and  _497
REMARK  207  A    between atoms: _497  and  _498
REMARK  208  A    between atoms: _507  and  _509
REMARK  209  A    between atoms: _509  and  _510
REMARK  210  A    between atoms: _509  and  _512
REMARK  211  A    between atoms: _515  and  _517
REMARK  212  A    between atoms: _517  and  _518
REMARK  213  A    between atoms: _517  and  _520
REMARK  214  A    between atoms: _520  and  _521
REMARK  215  A    between atoms: _524  and  _526
REMARK  216  A    between atoms: _526  and  _527
REMARK  217  A    between atoms: _526  and  _529
REMARK  218  A    between atoms: _529  and  _530
REMARK  219  A    between atoms: _530  and  _531
REMARK  220  A    between atoms: _531  and  _532
REMARK  221  A    between atoms: _532  and  _533
REMARK  222  A    between atoms: _537  and  _539
REMARK  223  A    between atoms: _539  and  _540
REMARK  224  A    between atoms: _539  and  _542
REMARK  225  A    between atoms: _542  and  _543
REMARK  226  A    between atoms: _543  and  _544
REMARK  227  A    between atoms: _546  and  _548
REMARK  228  A    between atoms: _548  and  _549
REMARK  229  A    between atoms: _548  and  _551
REMARK  230  A    between atoms: _554  and  _556
REMARK  231  A    between atoms: _556  and  _557
REMARK  232  A    between atoms: _556  and  _559
REMARK  233  A    between atoms: _559  and  _560
REMARK  234  A    between atoms: _570  and  _572
REMARK  235  A    between atoms: _572  and  _573
REMARK  236  A    between atoms: _572  and  _575
REMARK  237  A    between atoms: _575  and  _576
REMARK  238  A    between atoms: _576  and  _577
REMARK  239  A    between atoms: _577  and  _578
REMARK  240  A    between atoms: _578  and  _579
REMARK  241  A    between atoms: _583  and  _585
REMARK  242  A    between atoms: _585  and  _586
REMARK  243  A    between atoms: _585  and  _588
REMARK  244  A    between atoms: _588  and  _589
REMARK  245  A    between atoms: _592  and  _594
REMARK  246  A    between atoms: _594  and  _595
REMARK  247  A    between atoms: _594  and  _597
REMARK  248  A    between atoms: _597  and  _598
REMARK  249  A    between atoms: _603  and  _604
REMARK                            x       y       z     vdW  Elec       q    Type
REMARK                         _______ _______ _______ _____ _____    ______ ____
ROOT
ATOM      1  O   HOH     1      -2.875  -3.490  44.090  0.00  0.00    +0.000 OA
ENDROOT
TORSDOF 0
REMARK  Name = ../refined-set-2016/3p8z/3p8z_pocket.pdb
REMARK  249 active torsions:
REMARK  status: ('A' for Active; 'I' for Inactive)
REMARK    1  A    between atoms: _1  and  _3
REMARK    2  A    between atoms: _3  and  _4
REMARK    3  A    between atoms: _7  and  _9
REMARK    4  A    between atoms: _9  and  _10
REMARK    5  A    between atoms: _9  and  _12
REMARK    6  A    between atoms: _15  and  _17
REMARK    7  A    between atoms: _17  and  _18
REMARK    8  A    between atoms: _17  and  _20
REMARK    9  A    between atoms: _20  and  _21
REMARK   10  A    between atoms: _23  and  _25
REMARK   11  A    between atoms: _25  and  _26
REMARK   12  A    between atoms: _25  and  _28
REMARK   13  A    between atoms: _28  and  _29
REMARK   14  A    between atoms: _29  and  _30
REMARK   15  A    between atoms: _30  and  _31
REMARK   16  A    between atoms: _40  and  _42
REMARK   17  A    between atoms: _42  and  _43
REMARK   18  A    between atoms: _45  and  _47
REMARK   19  A    between atoms: _47  and  _48
REMARK   20  A    between atoms: _47  and  _50
REMARK   21  A    between atoms: _50  and  _51
REMARK   22  A    between atoms: _53  and  _55
REMARK   23  A    between atoms: _55  and  _56
REMARK   24  A    between atoms: _59  and  _61
REMARK   25  A    between atoms: _61  and  _62
REMARK   26  A    between atoms: _61  and  _64
REMARK   27  A    between atoms: _64  and  _65
REMARK   28  A    between atoms: _65  and  _66
REMARK   29  A    between atoms: _66  and  _67
REMARK   30  A    between atoms: _67  and  _68
REMARK   31  A    between atoms: _72  and  _74
REMARK   32  A    between atoms: _74  and  _75
REMARK   33  A    between atoms: _74  and  _77
REMARK   34  A    between atoms: _77  and  _78
REMARK   35  A    between atoms: _81  and  _83
REMARK   36  A    between atoms: _83  and  _84
REMARK   37  A    between atoms: _83  and  _86
REMARK   38  A    between atoms: _86  and  _87
REMARK   39  A    between atoms: _87  and  _88
REMARK   40  A    between atoms: _93  and  _95
REMARK   41  A    between atoms: _95  and  _96
REMARK   42  A    between atoms: _95  and  _98
REMARK   43  A    between atoms: _98  and  _99
REMARK   44  A    between atoms: _102  and  _104
REMARK   45  A    between atoms: _104  and  _105
REMARK   46  A    between atoms: _104  and  _107
REMARK   47  A    between atoms: _107  and  _108
REMARK   48  A    between atoms: _111  and  _113
REMARK   49  A    between atoms: _113  and  _114
REMARK   50  A    between atoms: _116  and  _118
REMARK   51  A    between atoms: _118  and  _119
REMARK   52  A    between atoms: _118  and  _121
REMARK   53  A    between atoms: _123  and  _125
REMARK   54  A    between atoms: _125  and  _126
REMARK   55  A    between atoms: _128  and  _130
REMARK   56  A    between atoms: _130  and  _131
REMARK   57  A    between atoms: _130  and  _133
REMARK   58  A    between atoms: _133  and  _134
REMARK   59  A    between atoms: _134  and  _135
REMARK   60  A    between atoms: _135  and  _136
REMARK   61  A    between atoms: _145  and  _147
REMARK   62  A    between atoms: _147  and  _148
REMARK   63  A    between atoms: _150  and  _152
REMARK   64  A    between atoms: _152  and  _153
REMARK   65  A    between atoms: _155  and  _157
REMARK   66  A    between atoms: _157  and  _158
REMARK   67  A    between atoms: _157  and  _160
REMARK   68  A    between atoms: _160  and  _161
REMARK   69  A    between atoms: _171  and  _173
REMARK   70  A    between atoms: _173  and  _174
REMARK   71  A    between atoms: _173  and  _176
REMARK   72  A    between atoms: _176  and  _177
REMARK   73  A    between atoms: _179  and  _181
REMARK   74  A    between atoms: _181  and  _182
REMARK   75  A    between atoms: _181  and  _184
REMARK   76  A    between atoms: _184  and  _185
REMARK   77  A    between atoms: _190  and  _191
REMARK   78  A    between atoms: _193  and  _195
REMARK   79  A    between atoms: _195  and  _196
REMARK   80  A    between atoms: _195  and  _198
REMARK   81  A    between atoms: _198  and  _199
REMARK   82  A    between atoms: _204  and  _205
REMARK   83  A    between atoms: _207  and  _209
REMARK   84  A    between atoms: _209  and  _210
REMARK   85  A    between atoms: _209  and  _212
REMARK   86  A    between atoms: _212  and  _213
REMARK   87  A    between atoms: _218  and  _219
REMARK   88  A    between atoms: _221  and  _223
REMARK   89  A    between atoms: _223  and  _224
REMARK   90  A    between atoms: _223  and  _226
REMARK   91  A    between atoms: _226  and  _227
REMARK   92  A    between atoms: _230  and  _232
REMARK   93  A    between atoms: _232  and  _233
REMARK   94  A    between atoms: _232  and  _235
REMARK   95  A    between atoms: _235  and  _236
REMARK   96  A    between atoms: _236  and  _237
REMARK   97  A    between atoms: _237  and  _238
REMARK   98  A    between atoms: _238  and  _239
REMARK   99  A    between atoms: _243  and  _245
REMARK  100  A    between atoms: _245  and  _246
REMARK  101  A    between atoms: _248  and  _250
REMARK  102  A    between atoms: _250  and  _251
REMARK  103  A    between atoms: _254  and  _255
REMARK  104  A    between atoms: _260  and  _262
REMARK  105  A    between atoms: _262  and  _263
REMARK  106  A    between atoms: _265  and  _267
REMARK  107  A    between atoms: _267  and  _268
REMARK  108  A    between atoms: _267  and  _270
REMARK  109  A    between atoms: _270  and  _271
REMARK  110  A    between atoms: _276  and  _278
REMARK  111  A    between atoms: _278  and  _279
REMARK  112  A    between atoms: _278  and  _281
REMARK  113  A    between atoms: _281  and  _282
REMARK  114  A    between atoms: _282  and  _283
REMARK  115  A    between atoms: _286  and  _288
REMARK  116  A    between atoms: _288  and  _289
REMARK  117  A    between atoms: _288  and  _291
REMARK  118  A    between atoms: _291  and  _292
REMARK  119  A    between atoms: _292  and  _293
REMARK  120  A    between atoms: _297  and  _298
REMARK  121  A    between atoms: _303  and  _305
REMARK  122  A    between atoms: _305  and  _306
REMARK  123  A    between atoms: _305  and  _308
REMARK  124  A    between atoms: _311  and  _313
REMARK  125  A    between atoms: _313  and  _314
REMARK  126  A    between atoms: _313  and  _316
REMARK  127  A    between atoms: _316  and  _317
REMARK  128  A    between atoms: _317  and  _318
REMARK  129  A    between atoms: _320  and  _322
REMARK  130  A    between atoms: _322  and  _323
REMARK  131  A    between atoms: _322  and  _325
REMARK  132  A    between atoms: _325  and  _326
REMARK  133  A    between atoms: _328  and  _330
REMARK  134  A    between atoms: _330  and  _331
REMARK  135  A    between atoms: _333  and  _335
REMARK  136  A    between atoms: _335  and  _336
REMARK  137  A    between atoms: _335  and  _338
REMARK  138  A    between atoms: _338  and  _339
REMARK  139  A    between atoms: _339  and  _340
REMARK  140  A    between atoms: _340  and  _341
REMARK  141  A    between atoms: _341  and  _342
REMARK  142  A    between atoms: _346  and  _348
REMARK  143  A    between atoms: _348  and  _349
REMARK  144  A    between atoms: _348  and  _351
REMARK  145  A    between atoms: _351  and  _352
REMARK  146  A    between atoms: _355  and  _357
REMARK  147  A    between atoms: _357  and  _358
REMARK  148  A    between atoms: _357  and  _360
REMARK  149  A    between atoms: _363  and  _365
REMARK  150  A    between atoms: _365  and  _366
REMARK  151  A    between atoms: _365  and  _368
REMARK  152  A    between atoms: _368  and  _369
REMARK  153  A    between atoms: _375  and  _377
REMARK  154  A    between atoms: _377  and  _378
REMARK  155  A    between atoms: _377  and  _380
REMARK  156  A    between atoms: _380  and  _381
REMARK  157  A    between atoms: _386  and  _387
REMARK  158  A    between atoms: _389  and  _391
REMARK  159  A    between atoms: _391  and  _392
REMARK  160  A    between atoms: _391  and  _394
REMARK  161  A    between atoms: _394  and  _395
REMARK  162  A    between atoms: _398  and  _400
REMARK  163  A    between atoms: _400  and  _401
REMARK  164  A    between atoms: _400  and  _403
REMARK  165  A    between atoms: _403  and  _404
REMARK  166  A    between atoms: _407  and  _409
REMARK  167  A    between atoms: _409  and  _410
REMARK  168  A    between atoms: _409  and  _412
REMARK  169  A    between atoms: _414  and  _416
REMARK  170  A    between atoms: _416  and  _417
REMARK  171  A    between atoms: _416  and  _419
REMARK  172  A    between atoms: _419  and  _420
REMARK  173  A    between atoms: _423  and  _425
REMARK  174  A    between atoms: _425  and  _426
REMARK  175  A    between atoms: _425  and  _428
REMARK  176  A    between atoms: _428  and  _429
REMARK  177  A    between atoms: _432  and  _434
REMARK  178  A    between atoms: _434  and  _435
REMARK  179  A    between atoms: _437  and  _439
REMARK  180  A    between atoms: _439  and  _440
REMARK  181  A    between atoms: _439  and  _442
REMARK  182  A    between atoms: _442  and  _443
REMARK  183  A    between atoms: _443  and  _444
REMARK  184  A    between atoms: _447  and  _449
REMARK  185  A    between atoms: _449  and  _450
REMARK  186  A    between atoms: _449  and  _452
REMARK  187  A    between atoms: _452  and  _453
REMARK  188  A    between atoms: _455  and  _457
REMARK  189  A    between atoms: _457  and  _458
REMARK  190  A    between atoms: _457  and  _460
REMARK  191  A    between atoms: _460  and  _461
REMARK  192  A    between atoms: _461  and  _462
REMARK  193  A    between atoms: _462  and  _463
REMARK  194  A    between atoms: _472  and  _474
REMARK  195  A    between atoms: _474  and  _475
REMARK  196  A    between atoms: _474  and  _477
REMARK  197  A    between atoms: _477  and  _478
REMARK  198  A    between atoms: _481  and  _483
REMARK  199  A    between atoms: _483  and  _484
REMARK  200  A    between atoms: _483  and  _486
REMARK  201  A    between atoms: _486  and  _487
REMARK  202  A    between atoms: _490  and  _492
REMARK  203  A    between atoms: _492  and  _493
REMARK  204  A    between atoms: _492  and  _495
REMARK  205  A    between atoms: _495  and  _496
REMARK  206  A    between atoms: _496  and  _497
REMARK  207  A    between atoms: _497  and  _498
REMARK  208  A    between atoms: _507  and  _509
REMARK  209  A    between atoms: _509  and  _510
REMARK  210  A    between atoms: _509  and  _512
REMARK  211  A    between atoms: _515  and  _517
REMARK  212  A    between atoms: _517  and  _518
REMARK  213  A    between atoms: _517  and  _520
REMARK  214  A    between atoms: _520  and  _521
REMARK  215  A    between atoms: _524  and  _526
REMARK  216  A    between atoms: _526  and  _527
REMARK  217  A    between atoms: _526  and  _529
REMARK  218  A    between atoms: _529  and  _530
REMARK  219  A    between atoms: _530  and  _531
REMARK  220  A    between atoms: _531  and  _532
REMARK  221  A    between atoms: _532  and  _533
REMARK  222  A    between atoms: _537  and  _539
REMARK  223  A    between atoms: _539  and  _540
REMARK  224  A    between atoms: _539  and  _542
REMARK  225  A    between atoms: _542  and  _543
REMARK  226  A    between atoms: _543  and  _544
REMARK  227  A    between atoms: _546  and  _548
REMARK  228  A    between atoms: _548  and  _549
REMARK  229  A    between atoms: _548  and  _551
REMARK  230  A    between atoms: _554  and  _556
REMARK  231  A    between atoms: _556  and  _557
REMARK  232  A    between atoms: _556  and  _559
REMARK  233  A    between atoms: _559  and  _560
REMARK  234  A    between atoms: _570  and  _572
REMARK  235  A    between atoms: _572  and  _573
REMARK  236  A    between atoms: _572  and  _575
REMARK  237  A    between atoms: _575  and  _576
REMARK  238  A    between atoms: _576  and  _577
REMARK  239  A    between atoms: _577  and  _578
REMARK  240  A    between atoms: _578  and  _579
REMARK  241  A    between atoms: _583  and  _585
REMARK  242  A    between atoms: _585  and  _586
REMARK  243  A    between atoms: _585  and  _588
REMARK  244  A    between atoms: _588  and  _589
REMARK  245  A    between atoms: _592  and  _594
REMARK  246  A    between atoms: _594  and  _595
REMARK  247  A    between atoms: _594  and  _597
REMARK  248  A    between atoms: _597  and  _598
REMARK  249  A    between atoms: _603  and  _604
REMARK                            x       y       z     vdW  Elec       q    Type
REMARK                         _______ _______ _______ _____ _____    ______ ____
ROOT
ATOM      1  O   HOH     1       2.726   7.939  42.278  0.00  0.00    +0.000 OA
ENDROOT
TORSDOF 0
REMARK  Name = ../refined-set-2016/3p8z/3p8z_pocket.pdb
REMARK  249 active torsions:
REMARK  status: ('A' for Active; 'I' for Inactive)
REMARK    1  A    between atoms: _1  and  _3
REMARK    2  A    between atoms: _3  and  _4
REMARK    3  A    between atoms: _7  and  _9
REMARK    4  A    between atoms: _9  and  _10
REMARK    5  A    between atoms: _9  and  _12
REMARK    6  A    between atoms: _15  and  _17
REMARK    7  A    between atoms: _17  and  _18
REMARK    8  A    between atoms: _17  and  _20
REMARK    9  A    between atoms: _20  and  _21
REMARK   10  A    between atoms: _23  and  _25
REMARK   11  A    between atoms: _25  and  _26
REMARK   12  A    between atoms: _25  and  _28
REMARK   13  A    between atoms: _28  and  _29
REMARK   14  A    between atoms: _29  and  _30
REMARK   15  A    between atoms: _30  and  _31
REMARK   16  A    between atoms: _40  and  _42
REMARK   17  A    between atoms: _42  and  _43
REMARK   18  A    between atoms: _45  and  _47
REMARK   19  A    between atoms: _47  and  _48
REMARK   20  A    between atoms: _47  and  _50
REMARK   21  A    between atoms: _50  and  _51
REMARK   22  A    between atoms: _53  and  _55
REMARK   23  A    between atoms: _55  and  _56
REMARK   24  A    between atoms: _59  and  _61
REMARK   25  A    between atoms: _61  and  _62
REMARK   26  A    between atoms: _61  and  _64
REMARK   27  A    between atoms: _64  and  _65
REMARK   28  A    between atoms: _65  and  _66
REMARK   29  A    between atoms: _66  and  _67
REMARK   30  A    between atoms: _67  and  _68
REMARK   31  A    between atoms: _72  and  _74
REMARK   32  A    between atoms: _74  and  _75
REMARK   33  A    between atoms: _74  and  _77
REMARK   34  A    between atoms: _77  and  _78
REMARK   35  A    between atoms: _81  and  _83
REMARK   36  A    between atoms: _83  and  _84
REMARK   37  A    between atoms: _83  and  _86
REMARK   38  A    between atoms: _86  and  _87
REMARK   39  A    between atoms: _87  and  _88
REMARK   40  A    between atoms: _93  and  _95
REMARK   41  A    between atoms: _95  and  _96
REMARK   42  A    between atoms: _95  and  _98
REMARK   43  A    between atoms: _98  and  _99
REMARK   44  A    between atoms: _102  and  _104
REMARK   45  A    between atoms: _104  and  _105
REMARK   46  A    between atoms: _104  and  _107
REMARK   47  A    between atoms: _107  and  _108
REMARK   48  A    between atoms: _111  and  _113
REMARK   49  A    between atoms: _113  and  _114
REMARK   50  A    between atoms: _116  and  _118
REMARK   51  A    between atoms: _118  and  _119
REMARK   52  A    between atoms: _118  and  _121
REMARK   53  A    between atoms: _123  and  _125
REMARK   54  A    between atoms: _125  and  _126
REMARK   55  A    between atoms: _128  and  _130
REMARK   56  A    between atoms: _130  and  _131
REMARK   57  A    between atoms: _130  and  _133
REMARK   58  A    between atoms: _133  and  _134
REMARK   59  A    between atoms: _134  and  _135
REMARK   60  A    between atoms: _135  and  _136
REMARK   61  A    between atoms: _145  and  _147
REMARK   62  A    between atoms: _147  and  _148
REMARK   63  A    between atoms: _150  and  _152
REMARK   64  A    between atoms: _152  and  _153
REMARK   65  A    between atoms: _155  and  _157
REMARK   66  A    between atoms: _157  and  _158
REMARK   67  A    between atoms: _157  and  _160
REMARK   68  A    between atoms: _160  and  _161
REMARK   69  A    between atoms: _171  and  _173
REMARK   70  A    between atoms: _173  and  _174
REMARK   71  A    between atoms: _173  and  _176
REMARK   72  A    between atoms: _176  and  _177
REMARK   73  A    between atoms: _179  and  _181
REMARK   74  A    between atoms: _181  and  _182
REMARK   75  A    between atoms: _181  and  _184
REMARK   76  A    between atoms: _184  and  _185
REMARK   77  A    between atoms: _190  and  _191
REMARK   78  A    between atoms: _193  and  _195
REMARK   79  A    between atoms: _195  and  _196
REMARK   80  A    between atoms: _195  and  _198
REMARK   81  A    between atoms: _198  and  _199
REMARK   82  A    between atoms: _204  and  _205
REMARK   83  A    between atoms: _207  and  _209
REMARK   84  A    between atoms: _209  and  _210
REMARK   85  A    between atoms: _209  and  _212
REMARK   86  A    between atoms: _212  and  _213
REMARK   87  A    between atoms: _218  and  _219
REMARK   88  A    between atoms: _221  and  _223
REMARK   89  A    between atoms: _223  and  _224
REMARK   90  A    between atoms: _223  and  _226
REMARK   91  A    between atoms: _226  and  _227
REMARK   92  A    between atoms: _230  and  _232
REMARK   93  A    between atoms: _232  and  _233
REMARK   94  A    between atoms: _232  and  _235
REMARK   95  A    between atoms: _235  and  _236
REMARK   96  A    between atoms: _236  and  _237
REMARK   97  A    between atoms: _237  and  _238
REMARK   98  A    between atoms: _238  and  _239
REMARK   99  A    between atoms: _243  and  _245
REMARK  100  A    between atoms: _245  and  _246
REMARK  101  A    between atoms: _248  and  _250
REMARK  102  A    between atoms: _250  and  _251
REMARK  103  A    between atoms: _254  and  _255
REMARK  104  A    between atoms: _260  and  _262
REMARK  105  A    between atoms: _262  and  _263
REMARK  106  A    between atoms: _265  and  _267
REMARK  107  A    between atoms: _267  and  _268
REMARK  108  A    between atoms: _267  and  _270
REMARK  109  A    between atoms: _270  and  _271
REMARK  110  A    between atoms: _276  and  _278
REMARK  111  A    between atoms: _278  and  _279
REMARK  112  A    between atoms: _278  and  _281
REMARK  113  A    between atoms: _281  and  _282
REMARK  114  A    between atoms: _282  and  _283
REMARK  115  A    between atoms: _286  and  _288
REMARK  116  A    between atoms: _288  and  _289
REMARK  117  A    between atoms: _288  and  _291
REMARK  118  A    between atoms: _291  and  _292
REMARK  119  A    between atoms: _292  and  _293
REMARK  120  A    between atoms: _297  and  _298
REMARK  121  A    between atoms: _303  and  _305
REMARK  122  A    between atoms: _305  and  _306
REMARK  123  A    between atoms: _305  and  _308
REMARK  124  A    between atoms: _311  and  _313
REMARK  125  A    between atoms: _313  and  _314
REMARK  126  A    between atoms: _313  and  _316
REMARK  127  A    between atoms: _316  and  _317
REMARK  128  A    between atoms: _317  and  _318
REMARK  129  A    between atoms: _320  and  _322
REMARK  130  A    between atoms: _322  and  _323
REMARK  131  A    between atoms: _322  and  _325
REMARK  132  A    between atoms: _325  and  _326
REMARK  133  A    between atoms: _328  and  _330
REMARK  134  A    between atoms: _330  and  _331
REMARK  135  A    between atoms: _333  and  _335
REMARK  136  A    between atoms: _335  and  _336
REMARK  137  A    between atoms: _335  and  _338
REMARK  138  A    between atoms: _338  and  _339
REMARK  139  A    between atoms: _339  and  _340
REMARK  140  A    between atoms: _340  and  _341
REMARK  141  A    between atoms: _341  and  _342
REMARK  142  A    between atoms: _346  and  _348
REMARK  143  A    between atoms: _348  and  _349
REMARK  144  A    between atoms: _348  and  _351
REMARK  145  A    between atoms: _351  and  _352
REMARK  146  A    between atoms: _355  and  _357
REMARK  147  A    between atoms: _357  and  _358
REMARK  148  A    between atoms: _357  and  _360
REMARK  149  A    between atoms: _363  and  _365
REMARK  150  A    between atoms: _365  and  _366
REMARK  151  A    between atoms: _365  and  _368
REMARK  152  A    between atoms: _368  and  _369
REMARK  153  A    between atoms: _375  and  _377
REMARK  154  A    between atoms: _377  and  _378
REMARK  155  A    between atoms: _377  and  _380
REMARK  156  A    between atoms: _380  and  _381
REMARK  157  A    between atoms: _386  and  _387
REMARK  158  A    between atoms: _389  and  _391
REMARK  159  A    between atoms: _391  and  _392
REMARK  160  A    between atoms: _391  and  _394
REMARK  161  A    between atoms: _394  and  _395
REMARK  162  A    between atoms: _398  and  _400
REMARK  163  A    between atoms: _400  and  _401
REMARK  164  A    between atoms: _400  and  _403
REMARK  165  A    between atoms: _403  and  _404
REMARK  166  A    between atoms: _407  and  _409
REMARK  167  A    between atoms: _409  and  _410
REMARK  168  A    between atoms: _409  and  _412
REMARK  169  A    between atoms: _414  and  _416
REMARK  170  A    between atoms: _416  and  _417
REMARK  171  A    between atoms: _416  and  _419
REMARK  172  A    between atoms: _419  and  _420
REMARK  173  A    between atoms: _423  and  _425
REMARK  174  A    between atoms: _425  and  _426
REMARK  175  A    between atoms: _425  and  _428
REMARK  176  A    between atoms: _428  and  _429
REMARK  177  A    between atoms: _432  and  _434
REMARK  178  A    between atoms: _434  and  _435
REMARK  179  A    between atoms: _437  and  _439
REMARK  180  A    between atoms: _439  and  _440
REMARK  181  A    between atoms: _439  and  _442
REMARK  182  A    between atoms: _442  and  _443
REMARK  183  A    between atoms: _443  and  _444
REMARK  184  A    between atoms: _447  and  _449
REMARK  185  A    between atoms: _449  and  _450
REMARK  186  A    between atoms: _449  and  _452
REMARK  187  A    between atoms: _452  and  _453
REMARK  188  A    between atoms: _455  and  _457
REMARK  189  A    between atoms: _457  and  _458
REMARK  190  A    between atoms: _457  and  _460
REMARK  191  A    between atoms: _460  and  _461
REMARK  192  A    between atoms: _461  and  _462
REMARK  193  A    between atoms: _462  and  _463
REMARK  194  A    between atoms: _472  and  _474
REMARK  195  A    between atoms: _474  and  _475
REMARK  196  A    between atoms: _474  and  _477
REMARK  197  A    between atoms: _477  and  _478
REMARK  198  A    between atoms: _481  and  _483
REMARK  199  A    between atoms: _483  and  _484
REMARK  200  A    between atoms: _483  and  _486
REMARK  201  A    between atoms: _486  and  _487
REMARK  202  A    between atoms: _490  and  _492
REMARK  203  A    between atoms: _492  and  _493
REMARK  204  A    between atoms: _492  and  _495
REMARK  205  A    between atoms: _495  and  _496
REMARK  206  A    between atoms: _496  and  _497
REMARK  207  A    between atoms: _497  and  _498
REMARK  208  A    between atoms: _507  and  _509
REMARK  209  A    between atoms: _509  and  _510
REMARK  210  A    between atoms: _509  and  _512
REMARK  211  A    between atoms: _515  and  _517
REMARK  212  A    between atoms: _517  and  _518
REMARK  213  A    between atoms: _517  and  _520
REMARK  214  A    between atoms: _520  and  _521
REMARK  215  A    between atoms: _524  and  _526
REMARK  216  A    between atoms: _526  and  _527
REMARK  217  A    between atoms: _526  and  _529
REMARK  218  A    between atoms: _529  and  _530
REMARK  219  A    between atoms: _530  and  _531
REMARK  220  A    between atoms: _531  and  _532
REMARK  221  A    between atoms: _532  and  _533
REMARK  222  A    between atoms: _537  and  _539
REMARK  223  A    between atoms: _539  and  _540
REMARK  224  A    between atoms: _539  and  _542
REMARK  225  A    between atoms: _542  and  _543
REMARK  226  A    between atoms: _543  and  _544
REMARK  227  A    between atoms: _546  and  _548
REMARK  228  A    between atoms: _548  and  _549
REMARK  229  A    between atoms: _548  and  _551
REMARK  230  A    between atoms: _554  and  _556
REMARK  231  A    between atoms: _556  and  _557
REMARK  232  A    between atoms: _556  and  _559
REMARK  233  A    between atoms: _559  and  _560
REMARK  234  A    between atoms: _570  and  _572
REMARK  235  A    between atoms: _572  and  _573
REMARK  236  A    between atoms: _572  and  _575
REMARK  237  A    between atoms: _575  and  _576
REMARK  238  A    between atoms: _576  and  _577
REMARK  239  A    between atoms: _577  and  _578
REMARK  240  A    between atoms: _578  and  _579
REMARK  241  A    between atoms: _583  and  _585
REMARK  242  A    between atoms: _585  and  _586
REMARK  243  A    between atoms: _585  and  _588
REMARK  244  A    between atoms: _588  and  _589
REMARK  245  A    between atoms: _592  and  _594
REMARK  246  A    between atoms: _594  and  _595
REMARK  247  A    between atoms: _594  and  _597
REMARK  248  A    between atoms: _597  and  _598
REMARK  249  A    between atoms: _603  and  _604
REMARK                            x       y       z     vdW  Elec       q    Type
REMARK                         _______ _______ _______ _____ _____    ______ ____
ROOT
ATOM      1  O   HOH     1       5.321  -7.527  52.002  0.00  0.00    +0.000 OA
ENDROOT
TORSDOF 0
REMARK  Name = ../refined-set-2016/3p8z/3p8z_pocket.pdb
REMARK  249 active torsions:
REMARK  status: ('A' for Active; 'I' for Inactive)
REMARK    1  A    between atoms: _1  and  _3
REMARK    2  A    between atoms: _3  and  _4
REMARK    3  A    between atoms: _7  and  _9
REMARK    4  A    between atoms: _9  and  _10
REMARK    5  A    between atoms: _9  and  _12
REMARK    6  A    between atoms: _15  and  _17
REMARK    7  A    between atoms: _17  and  _18
REMARK    8  A    between atoms: _17  and  _20
REMARK    9  A    between atoms: _20  and  _21
REMARK   10  A    between atoms: _23  and  _25
REMARK   11  A    between atoms: _25  and  _26
REMARK   12  A    between atoms: _25  and  _28
REMARK   13  A    between atoms: _28  and  _29
REMARK   14  A    between atoms: _29  and  _30
REMARK   15  A    between atoms: _30  and  _31
REMARK   16  A    between atoms: _40  and  _42
REMARK   17  A    between atoms: _42  and  _43
REMARK   18  A    between atoms: _45  and  _47
REMARK   19  A    between atoms: _47  and  _48
REMARK   20  A    between atoms: _47  and  _50
REMARK   21  A    between atoms: _50  and  _51
REMARK   22  A    between atoms: _53  and  _55
REMARK   23  A    between atoms: _55  and  _56
REMARK   24  A    between atoms: _59  and  _61
REMARK   25  A    between atoms: _61  and  _62
REMARK   26  A    between atoms: _61  and  _64
REMARK   27  A    between atoms: _64  and  _65
REMARK   28  A    between atoms: _65  and  _66
REMARK   29  A    between atoms: _66  and  _67
REMARK   30  A    between atoms: _67  and  _68
REMARK   31  A    between atoms: _72  and  _74
REMARK   32  A    between atoms: _74  and  _75
REMARK   33  A    between atoms: _74  and  _77
REMARK   34  A    between atoms: _77  and  _78
REMARK   35  A    between atoms: _81  and  _83
REMARK   36  A    between atoms: _83  and  _84
REMARK   37  A    between atoms: _83  and  _86
REMARK   38  A    between atoms: _86  and  _87
REMARK   39  A    between atoms: _87  and  _88
REMARK   40  A    between atoms: _93  and  _95
REMARK   41  A    between atoms: _95  and  _96
REMARK   42  A    between atoms: _95  and  _98
REMARK   43  A    between atoms: _98  and  _99
REMARK   44  A    between atoms: _102  and  _104
REMARK   45  A    between atoms: _104  and  _105
REMARK   46  A    between atoms: _104  and  _107
REMARK   47  A    between atoms: _107  and  _108
REMARK   48  A    between atoms: _111  and  _113
REMARK   49  A    between atoms: _113  and  _114
REMARK   50  A    between atoms: _116  and  _118
REMARK   51  A    between atoms: _118  and  _119
REMARK   52  A    between atoms: _118  and  _121
REMARK   53  A    between atoms: _123  and  _125
REMARK   54  A    between atoms: _125  and  _126
REMARK   55  A    between atoms: _128  and  _130
REMARK   56  A    between atoms: _130  and  _131
REMARK   57  A    between atoms: _130  and  _133
REMARK   58  A    between atoms: _133  and  _134
REMARK   59  A    between atoms: _134  and  _135
REMARK   60  A    between atoms: _135  and  _136
REMARK   61  A    between atoms: _145  and  _147
REMARK   62  A    between atoms: _147  and  _148
REMARK   63  A    between atoms: _150  and  _152
REMARK   64  A    between atoms: _152  and  _153
REMARK   65  A    between atoms: _155  and  _157
REMARK   66  A    between atoms: _157  and  _158
REMARK   67  A    between atoms: _157  and  _160
REMARK   68  A    between atoms: _160  and  _161
REMARK   69  A    between atoms: _171  and  _173
REMARK   70  A    between atoms: _173  and  _174
REMARK   71  A    between atoms: _173  and  _176
REMARK   72  A    between atoms: _176  and  _177
REMARK   73  A    between atoms: _179  and  _181
REMARK   74  A    between atoms: _181  and  _182
REMARK   75  A    between atoms: _181  and  _184
REMARK   76  A    between atoms: _184  and  _185
REMARK   77  A    between atoms: _190  and  _191
REMARK   78  A    between atoms: _193  and  _195
REMARK   79  A    between atoms: _195  and  _196
REMARK   80  A    between atoms: _195  and  _198
REMARK   81  A    between atoms: _198  and  _199
REMARK   82  A    between atoms: _204  and  _205
REMARK   83  A    between atoms: _207  and  _209
REMARK   84  A    between atoms: _209  and  _210
REMARK   85  A    between atoms: _209  and  _212
REMARK   86  A    between atoms: _212  and  _213
REMARK   87  A    between atoms: _218  and  _219
REMARK   88  A    between atoms: _221  and  _223
REMARK   89  A    between atoms: _223  and  _224
REMARK   90  A    between atoms: _223  and  _226
REMARK   91  A    between atoms: _226  and  _227
REMARK   92  A    between atoms: _230  and  _232
REMARK   93  A    between atoms: _232  and  _233
REMARK   94  A    between atoms: _232  and  _235
REMARK   95  A    between atoms: _235  and  _236
REMARK   96  A    between atoms: _236  and  _237
REMARK   97  A    between atoms: _237  and  _238
REMARK   98  A    between atoms: _238  and  _239
REMARK   99  A    between atoms: _243  and  _245
REMARK  100  A    between atoms: _245  and  _246
REMARK  101  A    between atoms: _248  and  _250
REMARK  102  A    between atoms: _250  and  _251
REMARK  103  A    between atoms: _254  and  _255
REMARK  104  A    between atoms: _260  and  _262
REMARK  105  A    between atoms: _262  and  _263
REMARK  106  A    between atoms: _265  and  _267
REMARK  107  A    between atoms: _267  and  _268
REMARK  108  A    between atoms: _267  and  _270
REMARK  109  A    between atoms: _270  and  _271
REMARK  110  A    between atoms: _276  and  _278
REMARK  111  A    between atoms: _278  and  _279
REMARK  112  A    between atoms: _278  and  _281
REMARK  113  A    between atoms: _281  and  _282
REMARK  114  A    between atoms: _282  and  _283
REMARK  115  A    between atoms: _286  and  _288
REMARK  116  A    between atoms: _288  and  _289
REMARK  117  A    between atoms: _288  and  _291
REMARK  118  A    between atoms: _291  and  _292
REMARK  119  A    between atoms: _292  and  _293
REMARK  120  A    between atoms: _297  and  _298
REMARK  121  A    between atoms: _303  and  _305
REMARK  122  A    between atoms: _305  and  _306
REMARK  123  A    between atoms: _305  and  _308
REMARK  124  A    between atoms: _311  and  _313
REMARK  125  A    between atoms: _313  and  _314
REMARK  126  A    between atoms: _313  and  _316
REMARK  127  A    between atoms: _316  and  _317
REMARK  128  A    between atoms: _317  and  _318
REMARK  129  A    between atoms: _320  and  _322
REMARK  130  A    between atoms: _322  and  _323
REMARK  131  A    between atoms: _322  and  _325
REMARK  132  A    between atoms: _325  and  _326
REMARK  133  A    between atoms: _328  and  _330
REMARK  134  A    between atoms: _330  and  _331
REMARK  135  A    between atoms: _333  and  _335
REMARK  136  A    between atoms: _335  and  _336
REMARK  137  A    between atoms: _335  and  _338
REMARK  138  A    between atoms: _338  and  _339
REMARK  139  A    between atoms: _339  and  _340
REMARK  140  A    between atoms: _340  and  _341
REMARK  141  A    between atoms: _341  and  _342
REMARK  142  A    between atoms: _346  and  _348
REMARK  143  A    between atoms: _348  and  _349
REMARK  144  A    between atoms: _348  and  _351
REMARK  145  A    between atoms: _351  and  _352
REMARK  146  A    between atoms: _355  and  _357
REMARK  147  A    between atoms: _357  and  _358
REMARK  148  A    between atoms: _357  and  _360
REMARK  149  A    between atoms: _363  and  _365
REMARK  150  A    between atoms: _365  and  _366
REMARK  151  A    between atoms: _365  and  _368
REMARK  152  A    between atoms: _368  and  _369
REMARK  153  A    between atoms: _375  and  _377
REMARK  154  A    between atoms: _377  and  _378
REMARK  155  A    between atoms: _377  and  _380
REMARK  156  A    between atoms: _380  and  _381
REMARK  157  A    between atoms: _386  and  _387
REMARK  158  A    between atoms: _389  and  _391
REMARK  159  A    between atoms: _391  and  _392
REMARK  160  A    between atoms: _391  and  _394
REMARK  161  A    between atoms: _394  and  _395
REMARK  162  A    between atoms: _398  and  _400
REMARK  163  A    between atoms: _400  and  _401
REMARK  164  A    between atoms: _400  and  _403
REMARK  165  A    between atoms: _403  and  _404
REMARK  166  A    between atoms: _407  and  _409
REMARK  167  A    between atoms: _409  and  _410
REMARK  168  A    between atoms: _409  and  _412
REMARK  169  A    between atoms: _414  and  _416
REMARK  170  A    between atoms: _416  and  _417
REMARK  171  A    between atoms: _416  and  _419
REMARK  172  A    between atoms: _419  and  _420
REMARK  173  A    between atoms: _423  and  _425
REMARK  174  A    between atoms: _425  and  _426
REMARK  175  A    between atoms: _425  and  _428
REMARK  176  A    between atoms: _428  and  _429
REMARK  177  A    between atoms: _432  and  _434
REMARK  178  A    between atoms: _434  and  _435
REMARK  179  A    between atoms: _437  and  _439
REMARK  180  A    between atoms: _439  and  _440
REMARK  181  A    between atoms: _439  and  _442
REMARK  182  A    between atoms: _442  and  _443
REMARK  183  A    between atoms: _443  and  _444
REMARK  184  A    between atoms: _447  and  _449
REMARK  185  A    between atoms: _449  and  _450
REMARK  186  A    between atoms: _449  and  _452
REMARK  187  A    between atoms: _452  and  _453
REMARK  188  A    between atoms: _455  and  _457
REMARK  189  A    between atoms: _457  and  _458
REMARK  190  A    between atoms: _457  and  _460
REMARK  191  A    between atoms: _460  and  _461
REMARK  192  A    between atoms: _461  and  _462
REMARK  193  A    between atoms: _462  and  _463
REMARK  194  A    between atoms: _472  and  _474
REMARK  195  A    between atoms: _474  and  _475
REMARK  196  A    between atoms: _474  and  _477
REMARK  197  A    between atoms: _477  and  _478
REMARK  198  A    between atoms: _481  and  _483
REMARK  199  A    between atoms: _483  and  _484
REMARK  200  A    between atoms: _483  and  _486
REMARK  201  A    between atoms: _486  and  _487
REMARK  202  A    between atoms: _490  and  _492
REMARK  203  A    between atoms: _492  and  _493
REMARK  204  A    between atoms: _492  and  _495
REMARK  205  A    between atoms: _495  and  _496
REMARK  206  A    between atoms: _496  and  _497
REMARK  207  A    between atoms: _497  and  _498
REMARK  208  A    between atoms: _507  and  _509
REMARK  209  A    between atoms: _509  and  _510
REMARK  210  A    between atoms: _509  and  _512
REMARK  211  A    between atoms: _515  and  _517
REMARK  212  A    between atoms: _517  and  _518
REMARK  213  A    between atoms: _517  and  _520
REMARK  214  A    between atoms: _520  and  _521
REMARK  215  A    between atoms: _524  and  _526
REMARK  216  A    between atoms: _526  and  _527
REMARK  217  A    between atoms: _526  and  _529
REMARK  218  A    between atoms: _529  and  _530
REMARK  219  A    between atoms: _530  and  _531
REMARK  220  A    between atoms: _531  and  _532
REMARK  221  A    between atoms: _532  and  _533
REMARK  222  A    between atoms: _537  and  _539
REMARK  223  A    between atoms: _539  and  _540
REMARK  224  A    between atoms: _539  and  _542
REMARK  225  A    between atoms: _542  and  _543
REMARK  226  A    between atoms: _543  and  _544
REMARK  227  A    between atoms: _546  and  _548
REMARK  228  A    between atoms: _548  and  _549
REMARK  229  A    between atoms: _548  and  _551
REMARK  230  A    between atoms: _554  and  _556
REMARK  231  A    between atoms: _556  and  _557
REMARK  232  A    between atoms: _556  and  _559
REMARK  233  A    between atoms: _559  and  _560
REMARK  234  A    between atoms: _570  and  _572
REMARK  235  A    between atoms: _572  and  _573
REMARK  236  A    between atoms: _572  and  _575
REMARK  237  A    between atoms: _575  and  _576
REMARK  238  A    between atoms: _576  and  _577
REMARK  239  A    between atoms: _577  and  _578
REMARK  240  A    between atoms: _578  and  _579
REMARK  241  A    between atoms: _583  and  _585
REMARK  242  A    between atoms: _585  and  _586
REMARK  243  A    between atoms: _585  and  _588
REMARK  244  A    between atoms: _588  and  _589
REMARK  245  A    between atoms: _592  and  _594
REMARK  246  A    between atoms: _594  and  _595
REMARK  247  A    between atoms: _594  and  _597
REMARK  248  A    between atoms: _597  and  _598
REMARK  249  A    between atoms: _603  and  _604
REMARK                            x       y       z     vdW  Elec       q    Type
REMARK                         _______ _______ _______ _____ _____    ______ ____
ROOT
ATOM      1  O   HOH     1       6.864  -4.509  50.238  0.00  0.00    +0.000 OA
ENDROOT
TORSDOF 0
REMARK  Name = ../refined-set-2016/3p8z/3p8z_pocket.pdb
REMARK  249 active torsions:
REMARK  status: ('A' for Active; 'I' for Inactive)
REMARK    1  A    between atoms: _1  and  _3
REMARK    2  A    between atoms: _3  and  _4
REMARK    3  A    between atoms: _7  and  _9
REMARK    4  A    between atoms: _9  and  _10
REMARK    5  A    between atoms: _9  and  _12
REMARK    6  A    between atoms: _15  and  _17
REMARK    7  A    between atoms: _17  and  _18
REMARK    8  A    between atoms: _17  and  _20
REMARK    9  A    between atoms: _20  and  _21
REMARK   10  A    between atoms: _23  and  _25
REMARK   11  A    between atoms: _25  and  _26
REMARK   12  A    between atoms: _25  and  _28
REMARK   13  A    between atoms: _28  and  _29
REMARK   14  A    between atoms: _29  and  _30
REMARK   15  A    between atoms: _30  and  _31
REMARK   16  A    between atoms: _40  and  _42
REMARK   17  A    between atoms: _42  and  _43
REMARK   18  A    between atoms: _45  and  _47
REMARK   19  A    between atoms: _47  and  _48
REMARK   20  A    between atoms: _47  and  _50
REMARK   21  A    between atoms: _50  and  _51
REMARK   22  A    between atoms: _53  and  _55
REMARK   23  A    between atoms: _55  and  _56
REMARK   24  A    between atoms: _59  and  _61
REMARK   25  A    between atoms: _61  and  _62
REMARK   26  A    between atoms: _61  and  _64
REMARK   27  A    between atoms: _64  and  _65
REMARK   28  A    between atoms: _65  and  _66
REMARK   29  A    between atoms: _66  and  _67
REMARK   30  A    between atoms: _67  and  _68
REMARK   31  A    between atoms: _72  and  _74
REMARK   32  A    between atoms: _74  and  _75
REMARK   33  A    between atoms: _74  and  _77
REMARK   34  A    between atoms: _77  and  _78
REMARK   35  A    between atoms: _81  and  _83
REMARK   36  A    between atoms: _83  and  _84
REMARK   37  A    between atoms: _83  and  _86
REMARK   38  A    between atoms: _86  and  _87
REMARK   39  A    between atoms: _87  and  _88
REMARK   40  A    between atoms: _93  and  _95
REMARK   41  A    between atoms: _95  and  _96
REMARK   42  A    between atoms: _95  and  _98
REMARK   43  A    between atoms: _98  and  _99
REMARK   44  A    between atoms: _102  and  _104
REMARK   45  A    between atoms: _104  and  _105
REMARK   46  A    between atoms: _104  and  _107
REMARK   47  A    between atoms: _107  and  _108
REMARK   48  A    between atoms: _111  and  _113
REMARK   49  A    between atoms: _113  and  _114
REMARK   50  A    between atoms: _116  and  _118
REMARK   51  A    between atoms: _118  and  _119
REMARK   52  A    between atoms: _118  and  _121
REMARK   53  A    between atoms: _123  and  _125
REMARK   54  A    between atoms: _125  and  _126
REMARK   55  A    between atoms: _128  and  _130
REMARK   56  A    between atoms: _130  and  _131
REMARK   57  A    between atoms: _130  and  _133
REMARK   58  A    between atoms: _133  and  _134
REMARK   59  A    between atoms: _134  and  _135
REMARK   60  A    between atoms: _135  and  _136
REMARK   61  A    between atoms: _145  and  _147
REMARK   62  A    between atoms: _147  and  _148
REMARK   63  A    between atoms: _150  and  _152
REMARK   64  A    between atoms: _152  and  _153
REMARK   65  A    between atoms: _155  and  _157
REMARK   66  A    between atoms: _157  and  _158
REMARK   67  A    between atoms: _157  and  _160
REMARK   68  A    between atoms: _160  and  _161
REMARK   69  A    between atoms: _171  and  _173
REMARK   70  A    between atoms: _173  and  _174
REMARK   71  A    between atoms: _173  and  _176
REMARK   72  A    between atoms: _176  and  _177
REMARK   73  A    between atoms: _179  and  _181
REMARK   74  A    between atoms: _181  and  _182
REMARK   75  A    between atoms: _181  and  _184
REMARK   76  A    between atoms: _184  and  _185
REMARK   77  A    between atoms: _190  and  _191
REMARK   78  A    between atoms: _193  and  _195
REMARK   79  A    between atoms: _195  and  _196
REMARK   80  A    between atoms: _195  and  _198
REMARK   81  A    between atoms: _198  and  _199
REMARK   82  A    between atoms: _204  and  _205
REMARK   83  A    between atoms: _207  and  _209
REMARK   84  A    between atoms: _209  and  _210
REMARK   85  A    between atoms: _209  and  _212
REMARK   86  A    between atoms: _212  and  _213
REMARK   87  A    between atoms: _218  and  _219
REMARK   88  A    between atoms: _221  and  _223
REMARK   89  A    between atoms: _223  and  _224
REMARK   90  A    between atoms: _223  and  _226
REMARK   91  A    between atoms: _226  and  _227
REMARK   92  A    between atoms: _230  and  _232
REMARK   93  A    between atoms: _232  and  _233
REMARK   94  A    between atoms: _232  and  _235
REMARK   95  A    between atoms: _235  and  _236
REMARK   96  A    between atoms: _236  and  _237
REMARK   97  A    between atoms: _237  and  _238
REMARK   98  A    between atoms: _238  and  _239
REMARK   99  A    between atoms: _243  and  _245
REMARK  100  A    between atoms: _245  and  _246
REMARK  101  A    between atoms: _248  and  _250
REMARK  102  A    between atoms: _250  and  _251
REMARK  103  A    between atoms: _254  and  _255
REMARK  104  A    between atoms: _260  and  _262
REMARK  105  A    between atoms: _262  and  _263
REMARK  106  A    between atoms: _265  and  _267
REMARK  107  A    between atoms: _267  and  _268
REMARK  108  A    between atoms: _267  and  _270
REMARK  109  A    between atoms: _270  and  _271
REMARK  110  A    between atoms: _276  and  _278
REMARK  111  A    between atoms: _278  and  _279
REMARK  112  A    between atoms: _278  and  _281
REMARK  113  A    between atoms: _281  and  _282
REMARK  114  A    between atoms: _282  and  _283
REMARK  115  A    between atoms: _286  and  _288
REMARK  116  A    between atoms: _288  and  _289
REMARK  117  A    between atoms: _288  and  _291
REMARK  118  A    between atoms: _291  and  _292
REMARK  119  A    between atoms: _292  and  _293
REMARK  120  A    between atoms: _297  and  _298
REMARK  121  A    between atoms: _303  and  _305
REMARK  122  A    between atoms: _305  and  _306
REMARK  123  A    between atoms: _305  and  _308
REMARK  124  A    between atoms: _311  and  _313
REMARK  125  A    between atoms: _313  and  _314
REMARK  126  A    between atoms: _313  and  _316
REMARK  127  A    between atoms: _316  and  _317
REMARK  128  A    between atoms: _317  and  _318
REMARK  129  A    between atoms: _320  and  _322
REMARK  130  A    between atoms: _322  and  _323
REMARK  131  A    between atoms: _322  and  _325
REMARK  132  A    between atoms: _325  and  _326
REMARK  133  A    between atoms: _328  and  _330
REMARK  134  A    between atoms: _330  and  _331
REMARK  135  A    between atoms: _333  and  _335
REMARK  136  A    between atoms: _335  and  _336
REMARK  137  A    between atoms: _335  and  _338
REMARK  138  A    between atoms: _338  and  _339
REMARK  139  A    between atoms: _339  and  _340
REMARK  140  A    between atoms: _340  and  _341
REMARK  141  A    between atoms: _341  and  _342
REMARK  142  A    between atoms: _346  and  _348
REMARK  143  A    between atoms: _348  and  _349
REMARK  144  A    between atoms: _348  and  _351
REMARK  145  A    between atoms: _351  and  _352
REMARK  146  A    between atoms: _355  and  _357
REMARK  147  A    between atoms: _357  and  _358
REMARK  148  A    between atoms: _357  and  _360
REMARK  149  A    between atoms: _363  and  _365
REMARK  150  A    between atoms: _365  and  _366
REMARK  151  A    between atoms: _365  and  _368
REMARK  152  A    between atoms: _368  and  _369
REMARK  153  A    between atoms: _375  and  _377
REMARK  154  A    between atoms: _377  and  _378
REMARK  155  A    between atoms: _377  and  _380
REMARK  156  A    between atoms: _380  and  _381
REMARK  157  A    between atoms: _386  and  _387
REMARK  158  A    between atoms: _389  and  _391
REMARK  159  A    between atoms: _391  and  _392
REMARK  160  A    between atoms: _391  and  _394
REMARK  161  A    between atoms: _394  and  _395
REMARK  162  A    between atoms: _398  and  _400
REMARK  163  A    between atoms: _400  and  _401
REMARK  164  A    between atoms: _400  and  _403
REMARK  165  A    between atoms: _403  and  _404
REMARK  166  A    between atoms: _407  and  _409
REMARK  167  A    between atoms: _409  and  _410
REMARK  168  A    between atoms: _409  and  _412
REMARK  169  A    between atoms: _414  and  _416
REMARK  170  A    between atoms: _416  and  _417
REMARK  171  A    between atoms: _416  and  _419
REMARK  172  A    between atoms: _419  and  _420
REMARK  173  A    between atoms: _423  and  _425
REMARK  174  A    between atoms: _425  and  _426
REMARK  175  A    between atoms: _425  and  _428
REMARK  176  A    between atoms: _428  and  _429
REMARK  177  A    between atoms: _432  and  _434
REMARK  178  A    between atoms: _434  and  _435
REMARK  179  A    between atoms: _437  and  _439
REMARK  180  A    between atoms: _439  and  _440
REMARK  181  A    between atoms: _439  and  _442
REMARK  182  A    between atoms: _442  and  _443
REMARK  183  A    between atoms: _443  and  _444
REMARK  184  A    between atoms: _447  and  _449
REMARK  185  A    between atoms: _449  and  _450
REMARK  186  A    between atoms: _449  and  _452
REMARK  187  A    between atoms: _452  and  _453
REMARK  188  A    between atoms: _455  and  _457
REMARK  189  A    between atoms: _457  and  _458
REMARK  190  A    between atoms: _457  and  _460
REMARK  191  A    between atoms: _460  and  _461
REMARK  192  A    between atoms: _461  and  _462
REMARK  193  A    between atoms: _462  and  _463
REMARK  194  A    between atoms: _472  and  _474
REMARK  195  A    between atoms: _474  and  _475
REMARK  196  A    between atoms: _474  and  _477
REMARK  197  A    between atoms: _477  and  _478
REMARK  198  A    between atoms: _481  and  _483
REMARK  199  A    between atoms: _483  and  _484
REMARK  200  A    between atoms: _483  and  _486
REMARK  201  A    between atoms: _486  and  _487
REMARK  202  A    between atoms: _490  and  _492
REMARK  203  A    between atoms: _492  and  _493
REMARK  204  A    between atoms: _492  and  _495
REMARK  205  A    between atoms: _495  and  _496
REMARK  206  A    between atoms: _496  and  _497
REMARK  207  A    between atoms: _497  and  _498
REMARK  208  A    between atoms: _507  and  _509
REMARK  209  A    between atoms: _509  and  _510
REMARK  210  A    between atoms: _509  and  _512
REMARK  211  A    between atoms: _515  and  _517
REMARK  212  A    between atoms: _517  and  _518
REMARK  213  A    between atoms: _517  and  _520
REMARK  214  A    between atoms: _520  and  _521
REMARK  215  A    between atoms: _524  and  _526
REMARK  216  A    between atoms: _526  and  _527
REMARK  217  A    between atoms: _526  and  _529
REMARK  218  A    between atoms: _529  and  _530
REMARK  219  A    between atoms: _530  and  _531
REMARK  220  A    between atoms: _531  and  _532
REMARK  221  A    between atoms: _532  and  _533
REMARK  222  A    between atoms: _537  and  _539
REMARK  223  A    between atoms: _539  and  _540
REMARK  224  A    between atoms: _539  and  _542
REMARK  225  A    between atoms: _542  and  _543
REMARK  226  A    between atoms: _543  and  _544
REMARK  227  A    between atoms: _546  and  _548
REMARK  228  A    between atoms: _548  and  _549
REMARK  229  A    between atoms: _548  and  _551
REMARK  230  A    between atoms: _554  and  _556
REMARK  231  A    between atoms: _556  and  _557
REMARK  232  A    between atoms: _556  and  _559
REMARK  233  A    between atoms: _559  and  _560
REMARK  234  A    between atoms: _570  and  _572
REMARK  235  A    between atoms: _572  and  _573
REMARK  236  A    between atoms: _572  and  _575
REMARK  237  A    between atoms: _575  and  _576
REMARK  238  A    between atoms: _576  and  _577
REMARK  239  A    between atoms: _577  and  _578
REMARK  240  A    between atoms: _578  and  _579
REMARK  241  A    between atoms: _583  and  _585
REMARK  242  A    between atoms: _585  and  _586
REMARK  243  A    between atoms: _585  and  _588
REMARK  244  A    between atoms: _588  and  _589
REMARK  245  A    between atoms: _592  and  _594
REMARK  246  A    between atoms: _594  and  _595
REMARK  247  A    between atoms: _594  and  _597
REMARK  248  A    between atoms: _597  and  _598
REMARK  249  A    between atoms: _603  and  _604
REMARK                            x       y       z     vdW  Elec       q    Type
REMARK                         _______ _______ _______ _____ _____    ______ ____
ROOT
ATOM      1  O   HOH     1       3.535   1.994  46.188  0.00  0.00    +0.000 OA
ENDROOT
TORSDOF 0
REMARK  Name = ../refined-set-2016/3p8z/3p8z_pocket.pdb
REMARK  249 active torsions:
REMARK  status: ('A' for Active; 'I' for Inactive)
REMARK    1  A    between atoms: _1  and  _3
REMARK    2  A    between atoms: _3  and  _4
REMARK    3  A    between atoms: _7  and  _9
REMARK    4  A    between atoms: _9  and  _10
REMARK    5  A    between atoms: _9  and  _12
REMARK    6  A    between atoms: _15  and  _17
REMARK    7  A    between atoms: _17  and  _18
REMARK    8  A    between atoms: _17  and  _20
REMARK    9  A    between atoms: _20  and  _21
REMARK   10  A    between atoms: _23  and  _25
REMARK   11  A    between atoms: _25  and  _26
REMARK   12  A    between atoms: _25  and  _28
REMARK   13  A    between atoms: _28  and  _29
REMARK   14  A    between atoms: _29  and  _30
REMARK   15  A    between atoms: _30  and  _31
REMARK   16  A    between atoms: _40  and  _42
REMARK   17  A    between atoms: _42  and  _43
REMARK   18  A    between atoms: _45  and  _47
REMARK   19  A    between atoms: _47  and  _48
REMARK   20  A    between atoms: _47  and  _50
REMARK   21  A    between atoms: _50  and  _51
REMARK   22  A    between atoms: _53  and  _55
REMARK   23  A    between atoms: _55  and  _56
REMARK   24  A    between atoms: _59  and  _61
REMARK   25  A    between atoms: _61  and  _62
REMARK   26  A    between atoms: _61  and  _64
REMARK   27  A    between atoms: _64  and  _65
REMARK   28  A    between atoms: _65  and  _66
REMARK   29  A    between atoms: _66  and  _67
REMARK   30  A    between atoms: _67  and  _68
REMARK   31  A    between atoms: _72  and  _74
REMARK   32  A    between atoms: _74  and  _75
REMARK   33  A    between atoms: _74  and  _77
REMARK   34  A    between atoms: _77  and  _78
REMARK   35  A    between atoms: _81  and  _83
REMARK   36  A    between atoms: _83  and  _84
REMARK   37  A    between atoms: _83  and  _86
REMARK   38  A    between atoms: _86  and  _87
REMARK   39  A    between atoms: _87  and  _88
REMARK   40  A    between atoms: _93  and  _95
REMARK   41  A    between atoms: _95  and  _96
REMARK   42  A    between atoms: _95  and  _98
REMARK   43  A    between atoms: _98  and  _99
REMARK   44  A    between atoms: _102  and  _104
REMARK   45  A    between atoms: _104  and  _105
REMARK   46  A    between atoms: _104  and  _107
REMARK   47  A    between atoms: _107  and  _108
REMARK   48  A    between atoms: _111  and  _113
REMARK   49  A    between atoms: _113  and  _114
REMARK   50  A    between atoms: _116  and  _118
REMARK   51  A    between atoms: _118  and  _119
REMARK   52  A    between atoms: _118  and  _121
REMARK   53  A    between atoms: _123  and  _125
REMARK   54  A    between atoms: _125  and  _126
REMARK   55  A    between atoms: _128  and  _130
REMARK   56  A    between atoms: _130  and  _131
REMARK   57  A    between atoms: _130  and  _133
REMARK   58  A    between atoms: _133  and  _134
REMARK   59  A    between atoms: _134  and  _135
REMARK   60  A    between atoms: _135  and  _136
REMARK   61  A    between atoms: _145  and  _147
REMARK   62  A    between atoms: _147  and  _148
REMARK   63  A    between atoms: _150  and  _152
REMARK   64  A    between atoms: _152  and  _153
REMARK   65  A    between atoms: _155  and  _157
REMARK   66  A    between atoms: _157  and  _158
REMARK   67  A    between atoms: _157  and  _160
REMARK   68  A    between atoms: _160  and  _161
REMARK   69  A    between atoms: _171  and  _173
REMARK   70  A    between atoms: _173  and  _174
REMARK   71  A    between atoms: _173  and  _176
REMARK   72  A    between atoms: _176  and  _177
REMARK   73  A    between atoms: _179  and  _181
REMARK   74  A    between atoms: _181  and  _182
REMARK   75  A    between atoms: _181  and  _184
REMARK   76  A    between atoms: _184  and  _185
REMARK   77  A    between atoms: _190  and  _191
REMARK   78  A    between atoms: _193  and  _195
REMARK   79  A    between atoms: _195  and  _196
REMARK   80  A    between atoms: _195  and  _198
REMARK   81  A    between atoms: _198  and  _199
REMARK   82  A    between atoms: _204  and  _205
REMARK   83  A    between atoms: _207  and  _209
REMARK   84  A    between atoms: _209  and  _210
REMARK   85  A    between atoms: _209  and  _212
REMARK   86  A    between atoms: _212  and  _213
REMARK   87  A    between atoms: _218  and  _219
REMARK   88  A    between atoms: _221  and  _223
REMARK   89  A    between atoms: _223  and  _224
REMARK   90  A    between atoms: _223  and  _226
REMARK   91  A    between atoms: _226  and  _227
REMARK   92  A    between atoms: _230  and  _232
REMARK   93  A    between atoms: _232  and  _233
REMARK   94  A    between atoms: _232  and  _235
REMARK   95  A    between atoms: _235  and  _236
REMARK   96  A    between atoms: _236  and  _237
REMARK   97  A    between atoms: _237  and  _238
REMARK   98  A    between atoms: _238  and  _239
REMARK   99  A    between atoms: _243  and  _245
REMARK  100  A    between atoms: _245  and  _246
REMARK  101  A    between atoms: _248  and  _250
REMARK  102  A    between atoms: _250  and  _251
REMARK  103  A    between atoms: _254  and  _255
REMARK  104  A    between atoms: _260  and  _262
REMARK  105  A    between atoms: _262  and  _263
REMARK  106  A    between atoms: _265  and  _267
REMARK  107  A    between atoms: _267  and  _268
REMARK  108  A    between atoms: _267  and  _270
REMARK  109  A    between atoms: _270  and  _271
REMARK  110  A    between atoms: _276  and  _278
REMARK  111  A    between atoms: _278  and  _279
REMARK  112  A    between atoms: _278  and  _281
REMARK  113  A    between atoms: _281  and  _282
REMARK  114  A    between atoms: _282  and  _283
REMARK  115  A    between atoms: _286  and  _288
REMARK  116  A    between atoms: _288  and  _289
REMARK  117  A    between atoms: _288  and  _291
REMARK  118  A    between atoms: _291  and  _292
REMARK  119  A    between atoms: _292  and  _293
REMARK  120  A    between atoms: _297  and  _298
REMARK  121  A    between atoms: _303  and  _305
REMARK  122  A    between atoms: _305  and  _306
REMARK  123  A    between atoms: _305  and  _308
REMARK  124  A    between atoms: _311  and  _313
REMARK  125  A    between atoms: _313  and  _314
REMARK  126  A    between atoms: _313  and  _316
REMARK  127  A    between atoms: _316  and  _317
REMARK  128  A    between atoms: _317  and  _318
REMARK  129  A    between atoms: _320  and  _322
REMARK  130  A    between atoms: _322  and  _323
REMARK  131  A    between atoms: _322  and  _325
REMARK  132  A    between atoms: _325  and  _326
REMARK  133  A    between atoms: _328  and  _330
REMARK  134  A    between atoms: _330  and  _331
REMARK  135  A    between atoms: _333  and  _335
REMARK  136  A    between atoms: _335  and  _336
REMARK  137  A    between atoms: _335  and  _338
REMARK  138  A    between atoms: _338  and  _339
REMARK  139  A    between atoms: _339  and  _340
REMARK  140  A    between atoms: _340  and  _341
REMARK  141  A    between atoms: _341  and  _342
REMARK  142  A    between atoms: _346  and  _348
REMARK  143  A    between atoms: _348  and  _349
REMARK  144  A    between atoms: _348  and  _351
REMARK  145  A    between atoms: _351  and  _352
REMARK  146  A    between atoms: _355  and  _357
REMARK  147  A    between atoms: _357  and  _358
REMARK  148  A    between atoms: _357  and  _360
REMARK  149  A    between atoms: _363  and  _365
REMARK  150  A    between atoms: _365  and  _366
REMARK  151  A    between atoms: _365  and  _368
REMARK  152  A    between atoms: _368  and  _369
REMARK  153  A    between atoms: _375  and  _377
REMARK  154  A    between atoms: _377  and  _378
REMARK  155  A    between atoms: _377  and  _380
REMARK  156  A    between atoms: _380  and  _381
REMARK  157  A    between atoms: _386  and  _387
REMARK  158  A    between atoms: _389  and  _391
REMARK  159  A    between atoms: _391  and  _392
REMARK  160  A    between atoms: _391  and  _394
REMARK  161  A    between atoms: _394  and  _395
REMARK  162  A    between atoms: _398  and  _400
REMARK  163  A    between atoms: _400  and  _401
REMARK  164  A    between atoms: _400  and  _403
REMARK  165  A    between atoms: _403  and  _404
REMARK  166  A    between atoms: _407  and  _409
REMARK  167  A    between atoms: _409  and  _410
REMARK  168  A    between atoms: _409  and  _412
REMARK  169  A    between atoms: _414  and  _416
REMARK  170  A    between atoms: _416  and  _417
REMARK  171  A    between atoms: _416  and  _419
REMARK  172  A    between atoms: _419  and  _420
REMARK  173  A    between atoms: _423  and  _425
REMARK  174  A    between atoms: _425  and  _426
REMARK  175  A    between atoms: _425  and  _428
REMARK  176  A    between atoms: _428  and  _429
REMARK  177  A    between atoms: _432  and  _434
REMARK  178  A    between atoms: _434  and  _435
REMARK  179  A    between atoms: _437  and  _439
REMARK  180  A    between atoms: _439  and  _440
REMARK  181  A    between atoms: _439  and  _442
REMARK  182  A    between atoms: _442  and  _443
REMARK  183  A    between atoms: _443  and  _444
REMARK  184  A    between atoms: _447  and  _449
REMARK  185  A    between atoms: _449  and  _450
REMARK  186  A    between atoms: _449  and  _452
REMARK  187  A    between atoms: _452  and  _453
REMARK  188  A    between atoms: _455  and  _457
REMARK  189  A    between atoms: _457  and  _458
REMARK  190  A    between atoms: _457  and  _460
REMARK  191  A    between atoms: _460  and  _461
REMARK  192  A    between atoms: _461  and  _462
REMARK  193  A    between atoms: _462  and  _463
REMARK  194  A    between atoms: _472  and  _474
REMARK  195  A    between atoms: _474  and  _475
REMARK  196  A    between atoms: _474  and  _477
REMARK  197  A    between atoms: _477  and  _478
REMARK  198  A    between atoms: _481  and  _483
REMARK  199  A    between atoms: _483  and  _484
REMARK  200  A    between atoms: _483  and  _486
REMARK  201  A    between atoms: _486  and  _487
REMARK  202  A    between atoms: _490  and  _492
REMARK  203  A    between atoms: _492  and  _493
REMARK  204  A    between atoms: _492  and  _495
REMARK  205  A    between atoms: _495  and  _496
REMARK  206  A    between atoms: _496  and  _497
REMARK  207  A    between atoms: _497  and  _498
REMARK  208  A    between atoms: _507  and  _509
REMARK  209  A    between atoms: _509  and  _510
REMARK  210  A    between atoms: _509  and  _512
REMARK  211  A    between atoms: _515  and  _517
REMARK  212  A    between atoms: _517  and  _518
REMARK  213  A    between atoms: _517  and  _520
REMARK  214  A    between atoms: _520  and  _521
REMARK  215  A    between atoms: _524  and  _526
REMARK  216  A    between atoms: _526  and  _527
REMARK  217  A    between atoms: _526  and  _529
REMARK  218  A    between atoms: _529  and  _530
REMARK  219  A    between atoms: _530  and  _531
REMARK  220  A    between atoms: _531  and  _532
REMARK  221  A    between atoms: _532  and  _533
REMARK  222  A    between atoms: _537  and  _539
REMARK  223  A    between atoms: _539  and  _540
REMARK  224  A    between atoms: _539  and  _542
REMARK  225  A    between atoms: _542  and  _543
REMARK  226  A    between atoms: _543  and  _544
REMARK  227  A    between atoms: _546  and  _548
REMARK  228  A    between atoms: _548  and  _549
REMARK  229  A    between atoms: _548  and  _551
REMARK  230  A    between atoms: _554  and  _556
REMARK  231  A    between atoms: _556  and  _557
REMARK  232  A    between atoms: _556  and  _559
REMARK  233  A    between atoms: _559  and  _560
REMARK  234  A    between atoms: _570  and  _572
REMARK  235  A    between atoms: _572  and  _573
REMARK  236  A    between atoms: _572  and  _575
REMARK  237  A    between atoms: _575  and  _576
REMARK  238  A    between atoms: _576  and  _577
REMARK  239  A    between atoms: _577  and  _578
REMARK  240  A    between atoms: _578  and  _579
REMARK  241  A    between atoms: _583  and  _585
REMARK  242  A    between atoms: _585  and  _586
REMARK  243  A    between atoms: _585  and  _588
REMARK  244  A    between atoms: _588  and  _589
REMARK  245  A    between atoms: _592  and  _594
REMARK  246  A    between atoms: _594  and  _595
REMARK  247  A    between atoms: _594  and  _597
REMARK  248  A    between atoms: _597  and  _598
REMARK  249  A    between atoms: _603  and  _604
REMARK                            x       y       z     vdW  Elec       q    Type
REMARK                         _______ _______ _______ _____ _____    ______ ____
ROOT
ATOM      1  O   HOH     1      -1.102   1.578  38.776  0.00  0.00    +0.000 OA
ENDROOT
TORSDOF 0
REMARK  Name = ../refined-set-2016/3p8z/3p8z_pocket.pdb
REMARK  249 active torsions:
REMARK  status: ('A' for Active; 'I' for Inactive)
REMARK    1  A    between atoms: _1  and  _3
REMARK    2  A    between atoms: _3  and  _4
REMARK    3  A    between atoms: _7  and  _9
REMARK    4  A    between atoms: _9  and  _10
REMARK    5  A    between atoms: _9  and  _12
REMARK    6  A    between atoms: _15  and  _17
REMARK    7  A    between atoms: _17  and  _18
REMARK    8  A    between atoms: _17  and  _20
REMARK    9  A    between atoms: _20  and  _21
REMARK   10  A    between atoms: _23  and  _25
REMARK   11  A    between atoms: _25  and  _26
REMARK   12  A    between atoms: _25  and  _28
REMARK   13  A    between atoms: _28  and  _29
REMARK   14  A    between atoms: _29  and  _30
REMARK   15  A    between atoms: _30  and  _31
REMARK   16  A    between atoms: _40  and  _42
REMARK   17  A    between atoms: _42  and  _43
REMARK   18  A    between atoms: _45  and  _47
REMARK   19  A    between atoms: _47  and  _48
REMARK   20  A    between atoms: _47  and  _50
REMARK   21  A    between atoms: _50  and  _51
REMARK   22  A    between atoms: _53  and  _55
REMARK   23  A    between atoms: _55  and  _56
REMARK   24  A    between atoms: _59  and  _61
REMARK   25  A    between atoms: _61  and  _62
REMARK   26  A    between atoms: _61  and  _64
REMARK   27  A    between atoms: _64  and  _65
REMARK   28  A    between atoms: _65  and  _66
REMARK   29  A    between atoms: _66  and  _67
REMARK   30  A    between atoms: _67  and  _68
REMARK   31  A    between atoms: _72  and  _74
REMARK   32  A    between atoms: _74  and  _75
REMARK   33  A    between atoms: _74  and  _77
REMARK   34  A    between atoms: _77  and  _78
REMARK   35  A    between atoms: _81  and  _83
REMARK   36  A    between atoms: _83  and  _84
REMARK   37  A    between atoms: _83  and  _86
REMARK   38  A    between atoms: _86  and  _87
REMARK   39  A    between atoms: _87  and  _88
REMARK   40  A    between atoms: _93  and  _95
REMARK   41  A    between atoms: _95  and  _96
REMARK   42  A    between atoms: _95  and  _98
REMARK   43  A    between atoms: _98  and  _99
REMARK   44  A    between atoms: _102  and  _104
REMARK   45  A    between atoms: _104  and  _105
REMARK   46  A    between atoms: _104  and  _107
REMARK   47  A    between atoms: _107  and  _108
REMARK   48  A    between atoms: _111  and  _113
REMARK   49  A    between atoms: _113  and  _114
REMARK   50  A    between atoms: _116  and  _118
REMARK   51  A    between atoms: _118  and  _119
REMARK   52  A    between atoms: _118  and  _121
REMARK   53  A    between atoms: _123  and  _125
REMARK   54  A    between atoms: _125  and  _126
REMARK   55  A    between atoms: _128  and  _130
REMARK   56  A    between atoms: _130  and  _131
REMARK   57  A    between atoms: _130  and  _133
REMARK   58  A    between atoms: _133  and  _134
REMARK   59  A    between atoms: _134  and  _135
REMARK   60  A    between atoms: _135  and  _136
REMARK   61  A    between atoms: _145  and  _147
REMARK   62  A    between atoms: _147  and  _148
REMARK   63  A    between atoms: _150  and  _152
REMARK   64  A    between atoms: _152  and  _153
REMARK   65  A    between atoms: _155  and  _157
REMARK   66  A    between atoms: _157  and  _158
REMARK   67  A    between atoms: _157  and  _160
REMARK   68  A    between atoms: _160  and  _161
REMARK   69  A    between atoms: _171  and  _173
REMARK   70  A    between atoms: _173  and  _174
REMARK   71  A    between atoms: _173  and  _176
REMARK   72  A    between atoms: _176  and  _177
REMARK   73  A    between atoms: _179  and  _181
REMARK   74  A    between atoms: _181  and  _182
REMARK   75  A    between atoms: _181  and  _184
REMARK   76  A    between atoms: _184  and  _185
REMARK   77  A    between atoms: _190  and  _191
REMARK   78  A    between atoms: _193  and  _195
REMARK   79  A    between atoms: _195  and  _196
REMARK   80  A    between atoms: _195  and  _198
REMARK   81  A    between atoms: _198  and  _199
REMARK   82  A    between atoms: _204  and  _205
REMARK   83  A    between atoms: _207  and  _209
REMARK   84  A    between atoms: _209  and  _210
REMARK   85  A    between atoms: _209  and  _212
REMARK   86  A    between atoms: _212  and  _213
REMARK   87  A    between atoms: _218  and  _219
REMARK   88  A    between atoms: _221  and  _223
REMARK   89  A    between atoms: _223  and  _224
REMARK   90  A    between atoms: _223  and  _226
REMARK   91  A    between atoms: _226  and  _227
REMARK   92  A    between atoms: _230  and  _232
REMARK   93  A    between atoms: _232  and  _233
REMARK   94  A    between atoms: _232  and  _235
REMARK   95  A    between atoms: _235  and  _236
REMARK   96  A    between atoms: _236  and  _237
REMARK   97  A    between atoms: _237  and  _238
REMARK   98  A    between atoms: _238  and  _239
REMARK   99  A    between atoms: _243  and  _245
REMARK  100  A    between atoms: _245  and  _246
REMARK  101  A    between atoms: _248  and  _250
REMARK  102  A    between atoms: _250  and  _251
REMARK  103  A    between atoms: _254  and  _255
REMARK  104  A    between atoms: _260  and  _262
REMARK  105  A    between atoms: _262  and  _263
REMARK  106  A    between atoms: _265  and  _267
REMARK  107  A    between atoms: _267  and  _268
REMARK  108  A    between atoms: _267  and  _270
REMARK  109  A    between atoms: _270  and  _271
REMARK  110  A    between atoms: _276  and  _278
REMARK  111  A    between atoms: _278  and  _279
REMARK  112  A    between atoms: _278  and  _281
REMARK  113  A    between atoms: _281  and  _282
REMARK  114  A    between atoms: _282  and  _283
REMARK  115  A    between atoms: _286  and  _288
REMARK  116  A    between atoms: _288  and  _289
REMARK  117  A    between atoms: _288  and  _291
REMARK  118  A    between atoms: _291  and  _292
REMARK  119  A    between atoms: _292  and  _293
REMARK  120  A    between atoms: _297  and  _298
REMARK  121  A    between atoms: _303  and  _305
REMARK  122  A    between atoms: _305  and  _306
REMARK  123  A    between atoms: _305  and  _308
REMARK  124  A    between atoms: _311  and  _313
REMARK  125  A    between atoms: _313  and  _314
REMARK  126  A    between atoms: _313  and  _316
REMARK  127  A    between atoms: _316  and  _317
REMARK  128  A    between atoms: _317  and  _318
REMARK  129  A    between atoms: _320  and  _322
REMARK  130  A    between atoms: _322  and  _323
REMARK  131  A    between atoms: _322  and  _325
REMARK  132  A    between atoms: _325  and  _326
REMARK  133  A    between atoms: _328  and  _330
REMARK  134  A    between atoms: _330  and  _331
REMARK  135  A    between atoms: _333  and  _335
REMARK  136  A    between atoms: _335  and  _336
REMARK  137  A    between atoms: _335  and  _338
REMARK  138  A    between atoms: _338  and  _339
REMARK  139  A    between atoms: _339  and  _340
REMARK  140  A    between atoms: _340  and  _341
REMARK  141  A    between atoms: _341  and  _342
REMARK  142  A    between atoms: _346  and  _348
REMARK  143  A    between atoms: _348  and  _349
REMARK  144  A    between atoms: _348  and  _351
REMARK  145  A    between atoms: _351  and  _352
REMARK  146  A    between atoms: _355  and  _357
REMARK  147  A    between atoms: _357  and  _358
REMARK  148  A    between atoms: _357  and  _360
REMARK  149  A    between atoms: _363  and  _365
REMARK  150  A    between atoms: _365  and  _366
REMARK  151  A    between atoms: _365  and  _368
REMARK  152  A    between atoms: _368  and  _369
REMARK  153  A    between atoms: _375  and  _377
REMARK  154  A    between atoms: _377  and  _378
REMARK  155  A    between atoms: _377  and  _380
REMARK  156  A    between atoms: _380  and  _381
REMARK  157  A    between atoms: _386  and  _387
REMARK  158  A    between atoms: _389  and  _391
REMARK  159  A    between atoms: _391  and  _392
REMARK  160  A    between atoms: _391  and  _394
REMARK  161  A    between atoms: _394  and  _395
REMARK  162  A    between atoms: _398  and  _400
REMARK  163  A    between atoms: _400  and  _401
REMARK  164  A    between atoms: _400  and  _403
REMARK  165  A    between atoms: _403  and  _404
REMARK  166  A    between atoms: _407  and  _409
REMARK  167  A    between atoms: _409  and  _410
REMARK  168  A    between atoms: _409  and  _412
REMARK  169  A    between atoms: _414  and  _416
REMARK  170  A    between atoms: _416  and  _417
REMARK  171  A    between atoms: _416  and  _419
REMARK  172  A    between atoms: _419  and  _420
REMARK  173  A    between atoms: _423  and  _425
REMARK  174  A    between atoms: _425  and  _426
REMARK  175  A    between atoms: _425  and  _428
REMARK  176  A    between atoms: _428  and  _429
REMARK  177  A    between atoms: _432  and  _434
REMARK  178  A    between atoms: _434  and  _435
REMARK  179  A    between atoms: _437  and  _439
REMARK  180  A    between atoms: _439  and  _440
REMARK  181  A    between atoms: _439  and  _442
REMARK  182  A    between atoms: _442  and  _443
REMARK  183  A    between atoms: _443  and  _444
REMARK  184  A    between atoms: _447  and  _449
REMARK  185  A    between atoms: _449  and  _450
REMARK  186  A    between atoms: _449  and  _452
REMARK  187  A    between atoms: _452  and  _453
REMARK  188  A    between atoms: _455  and  _457
REMARK  189  A    between atoms: _457  and  _458
REMARK  190  A    between atoms: _457  and  _460
REMARK  191  A    between atoms: _460  and  _461
REMARK  192  A    between atoms: _461  and  _462
REMARK  193  A    between atoms: _462  and  _463
REMARK  194  A    between atoms: _472  and  _474
REMARK  195  A    between atoms: _474  and  _475
REMARK  196  A    between atoms: _474  and  _477
REMARK  197  A    between atoms: _477  and  _478
REMARK  198  A    between atoms: _481  and  _483
REMARK  199  A    between atoms: _483  and  _484
REMARK  200  A    between atoms: _483  and  _486
REMARK  201  A    between atoms: _486  and  _487
REMARK  202  A    between atoms: _490  and  _492
REMARK  203  A    between atoms: _492  and  _493
REMARK  204  A    between atoms: _492  and  _495
REMARK  205  A    between atoms: _495  and  _496
REMARK  206  A    between atoms: _496  and  _497
REMARK  207  A    between atoms: _497  and  _498
REMARK  208  A    between atoms: _507  and  _509
REMARK  209  A    between atoms: _509  and  _510
REMARK  210  A    between atoms: _509  and  _512
REMARK  211  A    between atoms: _515  and  _517
REMARK  212  A    between atoms: _517  and  _518
REMARK  213  A    between atoms: _517  and  _520
REMARK  214  A    between atoms: _520  and  _521
REMARK  215  A    between atoms: _524  and  _526
REMARK  216  A    between atoms: _526  and  _527
REMARK  217  A    between atoms: _526  and  _529
REMARK  218  A    between atoms: _529  and  _530
REMARK  219  A    between atoms: _530  and  _531
REMARK  220  A    between atoms: _531  and  _532
REMARK  221  A    between atoms: _532  and  _533
REMARK  222  A    between atoms: _537  and  _539
REMARK  223  A    between atoms: _539  and  _540
REMARK  224  A    between atoms: _539  and  _542
REMARK  225  A    between atoms: _542  and  _543
REMARK  226  A    between atoms: _543  and  _544
REMARK  227  A    between atoms: _546  and  _548
REMARK  228  A    between atoms: _548  and  _549
REMARK  229  A    between atoms: _548  and  _551
REMARK  230  A    between atoms: _554  and  _556
REMARK  231  A    between atoms: _556  and  _557
REMARK  232  A    between atoms: _556  and  _559
REMARK  233  A    between atoms: _559  and  _560
REMARK  234  A    between atoms: _570  and  _572
REMARK  235  A    between atoms: _572  and  _573
REMARK  236  A    between atoms: _572  and  _575
REMARK  237  A    between atoms: _575  and  _576
REMARK  238  A    between atoms: _576  and  _577
REMARK  239  A    between atoms: _577  and  _578
REMARK  240  A    between atoms: _578  and  _579
REMARK  241  A    between atoms: _583  and  _585
REMARK  242  A    between atoms: _585  and  _586
REMARK  243  A    between atoms: _585  and  _588
REMARK  244  A    between atoms: _588  and  _589
REMARK  245  A    between atoms: _592  and  _594
REMARK  246  A    between atoms: _594  and  _595
REMARK  247  A    between atoms: _594  and  _597
REMARK  248  A    between atoms: _597  and  _598
REMARK  249  A    between atoms: _603  and  _604
REMARK                            x       y       z     vdW  Elec       q    Type
REMARK                         _______ _______ _______ _____ _____    ______ ____
ROOT
ATOM      1  O   HOH     1       4.219  -9.772  44.715  0.00  0.00    +0.000 OA
ENDROOT
TORSDOF 0
REMARK  Name = ../refined-set-2016/3p8z/3p8z_pocket.pdb
REMARK  249 active torsions:
REMARK  status: ('A' for Active; 'I' for Inactive)
REMARK    1  A    between atoms: _1  and  _3
REMARK    2  A    between atoms: _3  and  _4
REMARK    3  A    between atoms: _7  and  _9
REMARK    4  A    between atoms: _9  and  _10
REMARK    5  A    between atoms: _9  and  _12
REMARK    6  A    between atoms: _15  and  _17
REMARK    7  A    between atoms: _17  and  _18
REMARK    8  A    between atoms: _17  and  _20
REMARK    9  A    between atoms: _20  and  _21
REMARK   10  A    between atoms: _23  and  _25
REMARK   11  A    between atoms: _25  and  _26
REMARK   12  A    between atoms: _25  and  _28
REMARK   13  A    between atoms: _28  and  _29
REMARK   14  A    between atoms: _29  and  _30
REMARK   15  A    between atoms: _30  and  _31
REMARK   16  A    between atoms: _40  and  _42
REMARK   17  A    between atoms: _42  and  _43
REMARK   18  A    between atoms: _45  and  _47
REMARK   19  A    between atoms: _47  and  _48
REMARK   20  A    between atoms: _47  and  _50
REMARK   21  A    between atoms: _50  and  _51
REMARK   22  A    between atoms: _53  and  _55
REMARK   23  A    between atoms: _55  and  _56
REMARK   24  A    between atoms: _59  and  _61
REMARK   25  A    between atoms: _61  and  _62
REMARK   26  A    between atoms: _61  and  _64
REMARK   27  A    between atoms: _64  and  _65
REMARK   28  A    between atoms: _65  and  _66
REMARK   29  A    between atoms: _66  and  _67
REMARK   30  A    between atoms: _67  and  _68
REMARK   31  A    between atoms: _72  and  _74
REMARK   32  A    between atoms: _74  and  _75
REMARK   33  A    between atoms: _74  and  _77
REMARK   34  A    between atoms: _77  and  _78
REMARK   35  A    between atoms: _81  and  _83
REMARK   36  A    between atoms: _83  and  _84
REMARK   37  A    between atoms: _83  and  _86
REMARK   38  A    between atoms: _86  and  _87
REMARK   39  A    between atoms: _87  and  _88
REMARK   40  A    between atoms: _93  and  _95
REMARK   41  A    between atoms: _95  and  _96
REMARK   42  A    between atoms: _95  and  _98
REMARK   43  A    between atoms: _98  and  _99
REMARK   44  A    between atoms: _102  and  _104
REMARK   45  A    between atoms: _104  and  _105
REMARK   46  A    between atoms: _104  and  _107
REMARK   47  A    between atoms: _107  and  _108
REMARK   48  A    between atoms: _111  and  _113
REMARK   49  A    between atoms: _113  and  _114
REMARK   50  A    between atoms: _116  and  _118
REMARK   51  A    between atoms: _118  and  _119
REMARK   52  A    between atoms: _118  and  _121
REMARK   53  A    between atoms: _123  and  _125
REMARK   54  A    between atoms: _125  and  _126
REMARK   55  A    between atoms: _128  and  _130
REMARK   56  A    between atoms: _130  and  _131
REMARK   57  A    between atoms: _130  and  _133
REMARK   58  A    between atoms: _133  and  _134
REMARK   59  A    between atoms: _134  and  _135
REMARK   60  A    between atoms: _135  and  _136
REMARK   61  A    between atoms: _145  and  _147
REMARK   62  A    between atoms: _147  and  _148
REMARK   63  A    between atoms: _150  and  _152
REMARK   64  A    between atoms: _152  and  _153
REMARK   65  A    between atoms: _155  and  _157
REMARK   66  A    between atoms: _157  and  _158
REMARK   67  A    between atoms: _157  and  _160
REMARK   68  A    between atoms: _160  and  _161
REMARK   69  A    between atoms: _171  and  _173
REMARK   70  A    between atoms: _173  and  _174
REMARK   71  A    between atoms: _173  and  _176
REMARK   72  A    between atoms: _176  and  _177
REMARK   73  A    between atoms: _179  and  _181
REMARK   74  A    between atoms: _181  and  _182
REMARK   75  A    between atoms: _181  and  _184
REMARK   76  A    between atoms: _184  and  _185
REMARK   77  A    between atoms: _190  and  _191
REMARK   78  A    between atoms: _193  and  _195
REMARK   79  A    between atoms: _195  and  _196
REMARK   80  A    between atoms: _195  and  _198
REMARK   81  A    between atoms: _198  and  _199
REMARK   82  A    between atoms: _204  and  _205
REMARK   83  A    between atoms: _207  and  _209
REMARK   84  A    between atoms: _209  and  _210
REMARK   85  A    between atoms: _209  and  _212
REMARK   86  A    between atoms: _212  and  _213
REMARK   87  A    between atoms: _218  and  _219
REMARK   88  A    between atoms: _221  and  _223
REMARK   89  A    between atoms: _223  and  _224
REMARK   90  A    between atoms: _223  and  _226
REMARK   91  A    between atoms: _226  and  _227
REMARK   92  A    between atoms: _230  and  _232
REMARK   93  A    between atoms: _232  and  _233
REMARK   94  A    between atoms: _232  and  _235
REMARK   95  A    between atoms: _235  and  _236
REMARK   96  A    between atoms: _236  and  _237
REMARK   97  A    between atoms: _237  and  _238
REMARK   98  A    between atoms: _238  and  _239
REMARK   99  A    between atoms: _243  and  _245
REMARK  100  A    between atoms: _245  and  _246
REMARK  101  A    between atoms: _248  and  _250
REMARK  102  A    between atoms: _250  and  _251
REMARK  103  A    between atoms: _254  and  _255
REMARK  104  A    between atoms: _260  and  _262
REMARK  105  A    between atoms: _262  and  _263
REMARK  106  A    between atoms: _265  and  _267
REMARK  107  A    between atoms: _267  and  _268
REMARK  108  A    between atoms: _267  and  _270
REMARK  109  A    between atoms: _270  and  _271
REMARK  110  A    between atoms: _276  and  _278
REMARK  111  A    between atoms: _278  and  _279
REMARK  112  A    between atoms: _278  and  _281
REMARK  113  A    between atoms: _281  and  _282
REMARK  114  A    between atoms: _282  and  _283
REMARK  115  A    between atoms: _286  and  _288
REMARK  116  A    between atoms: _288  and  _289
REMARK  117  A    between atoms: _288  and  _291
REMARK  118  A    between atoms: _291  and  _292
REMARK  119  A    between atoms: _292  and  _293
REMARK  120  A    between atoms: _297  and  _298
REMARK  121  A    between atoms: _303  and  _305
REMARK  122  A    between atoms: _305  and  _306
REMARK  123  A    between atoms: _305  and  _308
REMARK  124  A    between atoms: _311  and  _313
REMARK  125  A    between atoms: _313  and  _314
REMARK  126  A    between atoms: _313  and  _316
REMARK  127  A    between atoms: _316  and  _317
REMARK  128  A    between atoms: _317  and  _318
REMARK  129  A    between atoms: _320  and  _322
REMARK  130  A    between atoms: _322  and  _323
REMARK  131  A    between atoms: _322  and  _325
REMARK  132  A    between atoms: _325  and  _326
REMARK  133  A    between atoms: _328  and  _330
REMARK  134  A    between atoms: _330  and  _331
REMARK  135  A    between atoms: _333  and  _335
REMARK  136  A    between atoms: _335  and  _336
REMARK  137  A    between atoms: _335  and  _338
REMARK  138  A    between atoms: _338  and  _339
REMARK  139  A    between atoms: _339  and  _340
REMARK  140  A    between atoms: _340  and  _341
REMARK  141  A    between atoms: _341  and  _342
REMARK  142  A    between atoms: _346  and  _348
REMARK  143  A    between atoms: _348  and  _349
REMARK  144  A    between atoms: _348  and  _351
REMARK  145  A    between atoms: _351  and  _352
REMARK  146  A    between atoms: _355  and  _357
REMARK  147  A    between atoms: _357  and  _358
REMARK  148  A    between atoms: _357  and  _360
REMARK  149  A    between atoms: _363  and  _365
REMARK  150  A    between atoms: _365  and  _366
REMARK  151  A    between atoms: _365  and  _368
REMARK  152  A    between atoms: _368  and  _369
REMARK  153  A    between atoms: _375  and  _377
REMARK  154  A    between atoms: _377  and  _378
REMARK  155  A    between atoms: _377  and  _380
REMARK  156  A    between atoms: _380  and  _381
REMARK  157  A    between atoms: _386  and  _387
REMARK  158  A    between atoms: _389  and  _391
REMARK  159  A    between atoms: _391  and  _392
REMARK  160  A    between atoms: _391  and  _394
REMARK  161  A    between atoms: _394  and  _395
REMARK  162  A    between atoms: _398  and  _400
REMARK  163  A    between atoms: _400  and  _401
REMARK  164  A    between atoms: _400  and  _403
REMARK  165  A    between atoms: _403  and  _404
REMARK  166  A    between atoms: _407  and  _409
REMARK  167  A    between atoms: _409  and  _410
REMARK  168  A    between atoms: _409  and  _412
REMARK  169  A    between atoms: _414  and  _416
REMARK  170  A    between atoms: _416  and  _417
REMARK  171  A    between atoms: _416  and  _419
REMARK  172  A    between atoms: _419  and  _420
REMARK  173  A    between atoms: _423  and  _425
REMARK  174  A    between atoms: _425  and  _426
REMARK  175  A    between atoms: _425  and  _428
REMARK  176  A    between atoms: _428  and  _429
REMARK  177  A    between atoms: _432  and  _434
REMARK  178  A    between atoms: _434  and  _435
REMARK  179  A    between atoms: _437  and  _439
REMARK  180  A    between atoms: _439  and  _440
REMARK  181  A    between atoms: _439  and  _442
REMARK  182  A    between atoms: _442  and  _443
REMARK  183  A    between atoms: _443  and  _444
REMARK  184  A    between atoms: _447  and  _449
REMARK  185  A    between atoms: _449  and  _450
REMARK  186  A    between atoms: _449  and  _452
REMARK  187  A    between atoms: _452  and  _453
REMARK  188  A    between atoms: _455  and  _457
REMARK  189  A    between atoms: _457  and  _458
REMARK  190  A    between atoms: _457  and  _460
REMARK  191  A    between atoms: _460  and  _461
REMARK  192  A    between atoms: _461  and  _462
REMARK  193  A    between atoms: _462  and  _463
REMARK  194  A    between atoms: _472  and  _474
REMARK  195  A    between atoms: _474  and  _475
REMARK  196  A    between atoms: _474  and  _477
REMARK  197  A    between atoms: _477  and  _478
REMARK  198  A    between atoms: _481  and  _483
REMARK  199  A    between atoms: _483  and  _484
REMARK  200  A    between atoms: _483  and  _486
REMARK  201  A    between atoms: _486  and  _487
REMARK  202  A    between atoms: _490  and  _492
REMARK  203  A    between atoms: _492  and  _493
REMARK  204  A    between atoms: _492  and  _495
REMARK  205  A    between atoms: _495  and  _496
REMARK  206  A    between atoms: _496  and  _497
REMARK  207  A    between atoms: _497  and  _498
REMARK  208  A    between atoms: _507  and  _509
REMARK  209  A    between atoms: _509  and  _510
REMARK  210  A    between atoms: _509  and  _512
REMARK  211  A    between atoms: _515  and  _517
REMARK  212  A    between atoms: _517  and  _518
REMARK  213  A    between atoms: _517  and  _520
REMARK  214  A    between atoms: _520  and  _521
REMARK  215  A    between atoms: _524  and  _526
REMARK  216  A    between atoms: _526  and  _527
REMARK  217  A    between atoms: _526  and  _529
REMARK  218  A    between atoms: _529  and  _530
REMARK  219  A    between atoms: _530  and  _531
REMARK  220  A    between atoms: _531  and  _532
REMARK  221  A    between atoms: _532  and  _533
REMARK  222  A    between atoms: _537  and  _539
REMARK  223  A    between atoms: _539  and  _540
REMARK  224  A    between atoms: _539  and  _542
REMARK  225  A    between atoms: _542  and  _543
REMARK  226  A    between atoms: _543  and  _544
REMARK  227  A    between atoms: _546  and  _548
REMARK  228  A    between atoms: _548  and  _549
REMARK  229  A    between atoms: _548  and  _551
REMARK  230  A    between atoms: _554  and  _556
REMARK  231  A    between atoms: _556  and  _557
REMARK  232  A    between atoms: _556  and  _559
REMARK  233  A    between atoms: _559  and  _560
REMARK  234  A    between atoms: _570  and  _572
REMARK  235  A    between atoms: _572  and  _573
REMARK  236  A    between atoms: _572  and  _575
REMARK  237  A    between atoms: _575  and  _576
REMARK  238  A    between atoms: _576  and  _577
REMARK  239  A    between atoms: _577  and  _578
REMARK  240  A    between atoms: _578  and  _579
REMARK  241  A    between atoms: _583  and  _585
REMARK  242  A    between atoms: _585  and  _586
REMARK  243  A    between atoms: _585  and  _588
REMARK  244  A    between atoms: _588  and  _589
REMARK  245  A    between atoms: _592  and  _594
REMARK  246  A    between atoms: _594  and  _595
REMARK  247  A    between atoms: _594  and  _597
REMARK  248  A    between atoms: _597  and  _598
REMARK  249  A    between atoms: _603  and  _604
REMARK                            x       y       z     vdW  Elec       q    Type
REMARK                         _______ _______ _______ _____ _____    ______ ____
ROOT
ATOM      1  O   HOH     1       6.527  -0.242  26.483  0.00  0.00    +0.000 OA
ENDROOT
TORSDOF 0
REMARK  Name = ../refined-set-2016/3p8z/3p8z_pocket.pdb
REMARK  249 active torsions:
REMARK  status: ('A' for Active; 'I' for Inactive)
REMARK    1  A    between atoms: _1  and  _3
REMARK    2  A    between atoms: _3  and  _4
REMARK    3  A    between atoms: _7  and  _9
REMARK    4  A    between atoms: _9  and  _10
REMARK    5  A    between atoms: _9  and  _12
REMARK    6  A    between atoms: _15  and  _17
REMARK    7  A    between atoms: _17  and  _18
REMARK    8  A    between atoms: _17  and  _20
REMARK    9  A    between atoms: _20  and  _21
REMARK   10  A    between atoms: _23  and  _25
REMARK   11  A    between atoms: _25  and  _26
REMARK   12  A    between atoms: _25  and  _28
REMARK   13  A    between atoms: _28  and  _29
REMARK   14  A    between atoms: _29  and  _30
REMARK   15  A    between atoms: _30  and  _31
REMARK   16  A    between atoms: _40  and  _42
REMARK   17  A    between atoms: _42  and  _43
REMARK   18  A    between atoms: _45  and  _47
REMARK   19  A    between atoms: _47  and  _48
REMARK   20  A    between atoms: _47  and  _50
REMARK   21  A    between atoms: _50  and  _51
REMARK   22  A    between atoms: _53  and  _55
REMARK   23  A    between atoms: _55  and  _56
REMARK   24  A    between atoms: _59  and  _61
REMARK   25  A    between atoms: _61  and  _62
REMARK   26  A    between atoms: _61  and  _64
REMARK   27  A    between atoms: _64  and  _65
REMARK   28  A    between atoms: _65  and  _66
REMARK   29  A    between atoms: _66  and  _67
REMARK   30  A    between atoms: _67  and  _68
REMARK   31  A    between atoms: _72  and  _74
REMARK   32  A    between atoms: _74  and  _75
REMARK   33  A    between atoms: _74  and  _77
REMARK   34  A    between atoms: _77  and  _78
REMARK   35  A    between atoms: _81  and  _83
REMARK   36  A    between atoms: _83  and  _84
REMARK   37  A    between atoms: _83  and  _86
REMARK   38  A    between atoms: _86  and  _87
REMARK   39  A    between atoms: _87  and  _88
REMARK   40  A    between atoms: _93  and  _95
REMARK   41  A    between atoms: _95  and  _96
REMARK   42  A    between atoms: _95  and  _98
REMARK   43  A    between atoms: _98  and  _99
REMARK   44  A    between atoms: _102  and  _104
REMARK   45  A    between atoms: _104  and  _105
REMARK   46  A    between atoms: _104  and  _107
REMARK   47  A    between atoms: _107  and  _108
REMARK   48  A    between atoms: _111  and  _113
REMARK   49  A    between atoms: _113  and  _114
REMARK   50  A    between atoms: _116  and  _118
REMARK   51  A    between atoms: _118  and  _119
REMARK   52  A    between atoms: _118  and  _121
REMARK   53  A    between atoms: _123  and  _125
REMARK   54  A    between atoms: _125  and  _126
REMARK   55  A    between atoms: _128  and  _130
REMARK   56  A    between atoms: _130  and  _131
REMARK   57  A    between atoms: _130  and  _133
REMARK   58  A    between atoms: _133  and  _134
REMARK   59  A    between atoms: _134  and  _135
REMARK   60  A    between atoms: _135  and  _136
REMARK   61  A    between atoms: _145  and  _147
REMARK   62  A    between atoms: _147  and  _148
REMARK   63  A    between atoms: _150  and  _152
REMARK   64  A    between atoms: _152  and  _153
REMARK   65  A    between atoms: _155  and  _157
REMARK   66  A    between atoms: _157  and  _158
REMARK   67  A    between atoms: _157  and  _160
REMARK   68  A    between atoms: _160  and  _161
REMARK   69  A    between atoms: _171  and  _173
REMARK   70  A    between atoms: _173  and  _174
REMARK   71  A    between atoms: _173  and  _176
REMARK   72  A    between atoms: _176  and  _177
REMARK   73  A    between atoms: _179  and  _181
REMARK   74  A    between atoms: _181  and  _182
REMARK   75  A    between atoms: _181  and  _184
REMARK   76  A    between atoms: _184  and  _185
REMARK   77  A    between atoms: _190  and  _191
REMARK   78  A    between atoms: _193  and  _195
REMARK   79  A    between atoms: _195  and  _196
REMARK   80  A    between atoms: _195  and  _198
REMARK   81  A    between atoms: _198  and  _199
REMARK   82  A    between atoms: _204  and  _205
REMARK   83  A    between atoms: _207  and  _209
REMARK   84  A    between atoms: _209  and  _210
REMARK   85  A    between atoms: _209  and  _212
REMARK   86  A    between atoms: _212  and  _213
REMARK   87  A    between atoms: _218  and  _219
REMARK   88  A    between atoms: _221  and  _223
REMARK   89  A    between atoms: _223  and  _224
REMARK   90  A    between atoms: _223  and  _226
REMARK   91  A    between atoms: _226  and  _227
REMARK   92  A    between atoms: _230  and  _232
REMARK   93  A    between atoms: _232  and  _233
REMARK   94  A    between atoms: _232  and  _235
REMARK   95  A    between atoms: _235  and  _236
REMARK   96  A    between atoms: _236  and  _237
REMARK   97  A    between atoms: _237  and  _238
REMARK   98  A    between atoms: _238  and  _239
REMARK   99  A    between atoms: _243  and  _245
REMARK  100  A    between atoms: _245  and  _246
REMARK  101  A    between atoms: _248  and  _250
REMARK  102  A    between atoms: _250  and  _251
REMARK  103  A    between atoms: _254  and  _255
REMARK  104  A    between atoms: _260  and  _262
REMARK  105  A    between atoms: _262  and  _263
REMARK  106  A    between atoms: _265  and  _267
REMARK  107  A    between atoms: _267  and  _268
REMARK  108  A    between atoms: _267  and  _270
REMARK  109  A    between atoms: _270  and  _271
REMARK  110  A    between atoms: _276  and  _278
REMARK  111  A    between atoms: _278  and  _279
REMARK  112  A    between atoms: _278  and  _281
REMARK  113  A    between atoms: _281  and  _282
REMARK  114  A    between atoms: _282  and  _283
REMARK  115  A    between atoms: _286  and  _288
REMARK  116  A    between atoms: _288  and  _289
REMARK  117  A    between atoms: _288  and  _291
REMARK  118  A    between atoms: _291  and  _292
REMARK  119  A    between atoms: _292  and  _293
REMARK  120  A    between atoms: _297  and  _298
REMARK  121  A    between atoms: _303  and  _305
REMARK  122  A    between atoms: _305  and  _306
REMARK  123  A    between atoms: _305  and  _308
REMARK  124  A    between atoms: _311  and  _313
REMARK  125  A    between atoms: _313  and  _314
REMARK  126  A    between atoms: _313  and  _316
REMARK  127  A    between atoms: _316  and  _317
REMARK  128  A    between atoms: _317  and  _318
REMARK  129  A    between atoms: _320  and  _322
REMARK  130  A    between atoms: _322  and  _323
REMARK  131  A    between atoms: _322  and  _325
REMARK  132  A    between atoms: _325  and  _326
REMARK  133  A    between atoms: _328  and  _330
REMARK  134  A    between atoms: _330  and  _331
REMARK  135  A    between atoms: _333  and  _335
REMARK  136  A    between atoms: _335  and  _336
REMARK  137  A    between atoms: _335  and  _338
REMARK  138  A    between atoms: _338  and  _339
REMARK  139  A    between atoms: _339  and  _340
REMARK  140  A    between atoms: _340  and  _341
REMARK  141  A    between atoms: _341  and  _342
REMARK  142  A    between atoms: _346  and  _348
REMARK  143  A    between atoms: _348  and  _349
REMARK  144  A    between atoms: _348  and  _351
REMARK  145  A    between atoms: _351  and  _352
REMARK  146  A    between atoms: _355  and  _357
REMARK  147  A    between atoms: _357  and  _358
REMARK  148  A    between atoms: _357  and  _360
REMARK  149  A    between atoms: _363  and  _365
REMARK  150  A    between atoms: _365  and  _366
REMARK  151  A    between atoms: _365  and  _368
REMARK  152  A    between atoms: _368  and  _369
REMARK  153  A    between atoms: _375  and  _377
REMARK  154  A    between atoms: _377  and  _378
REMARK  155  A    between atoms: _377  and  _380
REMARK  156  A    between atoms: _380  and  _381
REMARK  157  A    between atoms: _386  and  _387
REMARK  158  A    between atoms: _389  and  _391
REMARK  159  A    between atoms: _391  and  _392
REMARK  160  A    between atoms: _391  and  _394
REMARK  161  A    between atoms: _394  and  _395
REMARK  162  A    between atoms: _398  and  _400
REMARK  163  A    between atoms: _400  and  _401
REMARK  164  A    between atoms: _400  and  _403
REMARK  165  A    between atoms: _403  and  _404
REMARK  166  A    between atoms: _407  and  _409
REMARK  167  A    between atoms: _409  and  _410
REMARK  168  A    between atoms: _409  and  _412
REMARK  169  A    between atoms: _414  and  _416
REMARK  170  A    between atoms: _416  and  _417
REMARK  171  A    between atoms: _416  and  _419
REMARK  172  A    between atoms: _419  and  _420
REMARK  173  A    between atoms: _423  and  _425
REMARK  174  A    between atoms: _425  and  _426
REMARK  175  A    between atoms: _425  and  _428
REMARK  176  A    between atoms: _428  and  _429
REMARK  177  A    between atoms: _432  and  _434
REMARK  178  A    between atoms: _434  and  _435
REMARK  179  A    between atoms: _437  and  _439
REMARK  180  A    between atoms: _439  and  _440
REMARK  181  A    between atoms: _439  and  _442
REMARK  182  A    between atoms: _442  and  _443
REMARK  183  A    between atoms: _443  and  _444
REMARK  184  A    between atoms: _447  and  _449
REMARK  185  A    between atoms: _449  and  _450
REMARK  186  A    between atoms: _449  and  _452
REMARK  187  A    between atoms: _452  and  _453
REMARK  188  A    between atoms: _455  and  _457
REMARK  189  A    between atoms: _457  and  _458
REMARK  190  A    between atoms: _457  and  _460
REMARK  191  A    between atoms: _460  and  _461
REMARK  192  A    between atoms: _461  and  _462
REMARK  193  A    between atoms: _462  and  _463
REMARK  194  A    between atoms: _472  and  _474
REMARK  195  A    between atoms: _474  and  _475
REMARK  196  A    between atoms: _474  and  _477
REMARK  197  A    between atoms: _477  and  _478
REMARK  198  A    between atoms: _481  and  _483
REMARK  199  A    between atoms: _483  and  _484
REMARK  200  A    between atoms: _483  and  _486
REMARK  201  A    between atoms: _486  and  _487
REMARK  202  A    between atoms: _490  and  _492
REMARK  203  A    between atoms: _492  and  _493
REMARK  204  A    between atoms: _492  and  _495
REMARK  205  A    between atoms: _495  and  _496
REMARK  206  A    between atoms: _496  and  _497
REMARK  207  A    between atoms: _497  and  _498
REMARK  208  A    between atoms: _507  and  _509
REMARK  209  A    between atoms: _509  and  _510
REMARK  210  A    between atoms: _509  and  _512
REMARK  211  A    between atoms: _515  and  _517
REMARK  212  A    between atoms: _517  and  _518
REMARK  213  A    between atoms: _517  and  _520
REMARK  214  A    between atoms: _520  and  _521
REMARK  215  A    between atoms: _524  and  _526
REMARK  216  A    between atoms: _526  and  _527
REMARK  217  A    between atoms: _526  and  _529
REMARK  218  A    between atoms: _529  and  _530
REMARK  219  A    between atoms: _530  and  _531
REMARK  220  A    between atoms: _531  and  _532
REMARK  221  A    between atoms: _532  and  _533
REMARK  222  A    between atoms: _537  and  _539
REMARK  223  A    between atoms: _539  and  _540
REMARK  224  A    between atoms: _539  and  _542
REMARK  225  A    between atoms: _542  and  _543
REMARK  226  A    between atoms: _543  and  _544
REMARK  227  A    between atoms: _546  and  _548
REMARK  228  A    between atoms: _548  and  _549
REMARK  229  A    between atoms: _548  and  _551
REMARK  230  A    between atoms: _554  and  _556
REMARK  231  A    between atoms: _556  and  _557
REMARK  232  A    between atoms: _556  and  _559
REMARK  233  A    between atoms: _559  and  _560
REMARK  234  A    between atoms: _570  and  _572
REMARK  235  A    between atoms: _572  and  _573
REMARK  236  A    between atoms: _572  and  _575
REMARK  237  A    between atoms: _575  and  _576
REMARK  238  A    between atoms: _576  and  _577
REMARK  239  A    between atoms: _577  and  _578
REMARK  240  A    between atoms: _578  and  _579
REMARK  241  A    between atoms: _583  and  _585
REMARK  242  A    between atoms: _585  and  _586
REMARK  243  A    between atoms: _585  and  _588
REMARK  244  A    between atoms: _588  and  _589
REMARK  245  A    between atoms: _592  and  _594
REMARK  246  A    between atoms: _594  and  _595
REMARK  247  A    between atoms: _594  and  _597
REMARK  248  A    between atoms: _597  and  _598
REMARK  249  A    between atoms: _603  and  _604
REMARK                            x       y       z     vdW  Elec       q    Type
REMARK                         _______ _______ _______ _____ _____    ______ ____
ROOT
ATOM      1  O   HOH     1       6.347  -2.681  46.811  0.00  0.00    +0.000 OA
ENDROOT
TORSDOF 0
REMARK  Name = ../refined-set-2016/3p8z/3p8z_pocket.pdb
REMARK  249 active torsions:
REMARK  status: ('A' for Active; 'I' for Inactive)
REMARK    1  A    between atoms: _1  and  _3
REMARK    2  A    between atoms: _3  and  _4
REMARK    3  A    between atoms: _7  and  _9
REMARK    4  A    between atoms: _9  and  _10
REMARK    5  A    between atoms: _9  and  _12
REMARK    6  A    between atoms: _15  and  _17
REMARK    7  A    between atoms: _17  and  _18
REMARK    8  A    between atoms: _17  and  _20
REMARK    9  A    between atoms: _20  and  _21
REMARK   10  A    between atoms: _23  and  _25
REMARK   11  A    between atoms: _25  and  _26
REMARK   12  A    between atoms: _25  and  _28
REMARK   13  A    between atoms: _28  and  _29
REMARK   14  A    between atoms: _29  and  _30
REMARK   15  A    between atoms: _30  and  _31
REMARK   16  A    between atoms: _40  and  _42
REMARK   17  A    between atoms: _42  and  _43
REMARK   18  A    between atoms: _45  and  _47
REMARK   19  A    between atoms: _47  and  _48
REMARK   20  A    between atoms: _47  and  _50
REMARK   21  A    between atoms: _50  and  _51
REMARK   22  A    between atoms: _53  and  _55
REMARK   23  A    between atoms: _55  and  _56
REMARK   24  A    between atoms: _59  and  _61
REMARK   25  A    between atoms: _61  and  _62
REMARK   26  A    between atoms: _61  and  _64
REMARK   27  A    between atoms: _64  and  _65
REMARK   28  A    between atoms: _65  and  _66
REMARK   29  A    between atoms: _66  and  _67
REMARK   30  A    between atoms: _67  and  _68
REMARK   31  A    between atoms: _72  and  _74
REMARK   32  A    between atoms: _74  and  _75
REMARK   33  A    between atoms: _74  and  _77
REMARK   34  A    between atoms: _77  and  _78
REMARK   35  A    between atoms: _81  and  _83
REMARK   36  A    between atoms: _83  and  _84
REMARK   37  A    between atoms: _83  and  _86
REMARK   38  A    between atoms: _86  and  _87
REMARK   39  A    between atoms: _87  and  _88
REMARK   40  A    between atoms: _93  and  _95
REMARK   41  A    between atoms: _95  and  _96
REMARK   42  A    between atoms: _95  and  _98
REMARK   43  A    between atoms: _98  and  _99
REMARK   44  A    between atoms: _102  and  _104
REMARK   45  A    between atoms: _104  and  _105
REMARK   46  A    between atoms: _104  and  _107
REMARK   47  A    between atoms: _107  and  _108
REMARK   48  A    between atoms: _111  and  _113
REMARK   49  A    between atoms: _113  and  _114
REMARK   50  A    between atoms: _116  and  _118
REMARK   51  A    between atoms: _118  and  _119
REMARK   52  A    between atoms: _118  and  _121
REMARK   53  A    between atoms: _123  and  _125
REMARK   54  A    between atoms: _125  and  _126
REMARK   55  A    between atoms: _128  and  _130
REMARK   56  A    between atoms: _130  and  _131
REMARK   57  A    between atoms: _130  and  _133
REMARK   58  A    between atoms: _133  and  _134
REMARK   59  A    between atoms: _134  and  _135
REMARK   60  A    between atoms: _135  and  _136
REMARK   61  A    between atoms: _145  and  _147
REMARK   62  A    between atoms: _147  and  _148
REMARK   63  A    between atoms: _150  and  _152
REMARK   64  A    between atoms: _152  and  _153
REMARK   65  A    between atoms: _155  and  _157
REMARK   66  A    between atoms: _157  and  _158
REMARK   67  A    between atoms: _157  and  _160
REMARK   68  A    between atoms: _160  and  _161
REMARK   69  A    between atoms: _171  and  _173
REMARK   70  A    between atoms: _173  and  _174
REMARK   71  A    between atoms: _173  and  _176
REMARK   72  A    between atoms: _176  and  _177
REMARK   73  A    between atoms: _179  and  _181
REMARK   74  A    between atoms: _181  and  _182
REMARK   75  A    between atoms: _181  and  _184
REMARK   76  A    between atoms: _184  and  _185
REMARK   77  A    between atoms: _190  and  _191
REMARK   78  A    between atoms: _193  and  _195
REMARK   79  A    between atoms: _195  and  _196
REMARK   80  A    between atoms: _195  and  _198
REMARK   81  A    between atoms: _198  and  _199
REMARK   82  A    between atoms: _204  and  _205
REMARK   83  A    between atoms: _207  and  _209
REMARK   84  A    between atoms: _209  and  _210
REMARK   85  A    between atoms: _209  and  _212
REMARK   86  A    between atoms: _212  and  _213
REMARK   87  A    between atoms: _218  and  _219
REMARK   88  A    between atoms: _221  and  _223
REMARK   89  A    between atoms: _223  and  _224
REMARK   90  A    between atoms: _223  and  _226
REMARK   91  A    between atoms: _226  and  _227
REMARK   92  A    between atoms: _230  and  _232
REMARK   93  A    between atoms: _232  and  _233
REMARK   94  A    between atoms: _232  and  _235
REMARK   95  A    between atoms: _235  and  _236
REMARK   96  A    between atoms: _236  and  _237
REMARK   97  A    between atoms: _237  and  _238
REMARK   98  A    between atoms: _238  and  _239
REMARK   99  A    between atoms: _243  and  _245
REMARK  100  A    between atoms: _245  and  _246
REMARK  101  A    between atoms: _248  and  _250
REMARK  102  A    between atoms: _250  and  _251
REMARK  103  A    between atoms: _254  and  _255
REMARK  104  A    between atoms: _260  and  _262
REMARK  105  A    between atoms: _262  and  _263
REMARK  106  A    between atoms: _265  and  _267
REMARK  107  A    between atoms: _267  and  _268
REMARK  108  A    between atoms: _267  and  _270
REMARK  109  A    between atoms: _270  and  _271
REMARK  110  A    between atoms: _276  and  _278
REMARK  111  A    between atoms: _278  and  _279
REMARK  112  A    between atoms: _278  and  _281
REMARK  113  A    between atoms: _281  and  _282
REMARK  114  A    between atoms: _282  and  _283
REMARK  115  A    between atoms: _286  and  _288
REMARK  116  A    between atoms: _288  and  _289
REMARK  117  A    between atoms: _288  and  _291
REMARK  118  A    between atoms: _291  and  _292
REMARK  119  A    between atoms: _292  and  _293
REMARK  120  A    between atoms: _297  and  _298
REMARK  121  A    between atoms: _303  and  _305
REMARK  122  A    between atoms: _305  and  _306
REMARK  123  A    between atoms: _305  and  _308
REMARK  124  A    between atoms: _311  and  _313
REMARK  125  A    between atoms: _313  and  _314
REMARK  126  A    between atoms: _313  and  _316
REMARK  127  A    between atoms: _316  and  _317
REMARK  128  A    between atoms: _317  and  _318
REMARK  129  A    between atoms: _320  and  _322
REMARK  130  A    between atoms: _322  and  _323
REMARK  131  A    between atoms: _322  and  _325
REMARK  132  A    between atoms: _325  and  _326
REMARK  133  A    between atoms: _328  and  _330
REMARK  134  A    between atoms: _330  and  _331
REMARK  135  A    between atoms: _333  and  _335
REMARK  136  A    between atoms: _335  and  _336
REMARK  137  A    between atoms: _335  and  _338
REMARK  138  A    between atoms: _338  and  _339
REMARK  139  A    between atoms: _339  and  _340
REMARK  140  A    between atoms: _340  and  _341
REMARK  141  A    between atoms: _341  and  _342
REMARK  142  A    between atoms: _346  and  _348
REMARK  143  A    between atoms: _348  and  _349
REMARK  144  A    between atoms: _348  and  _351
REMARK  145  A    between atoms: _351  and  _352
REMARK  146  A    between atoms: _355  and  _357
REMARK  147  A    between atoms: _357  and  _358
REMARK  148  A    between atoms: _357  and  _360
REMARK  149  A    between atoms: _363  and  _365
REMARK  150  A    between atoms: _365  and  _366
REMARK  151  A    between atoms: _365  and  _368
REMARK  152  A    between atoms: _368  and  _369
REMARK  153  A    between atoms: _375  and  _377
REMARK  154  A    between atoms: _377  and  _378
REMARK  155  A    between atoms: _377  and  _380
REMARK  156  A    between atoms: _380  and  _381
REMARK  157  A    between atoms: _386  and  _387
REMARK  158  A    between atoms: _389  and  _391
REMARK  159  A    between atoms: _391  and  _392
REMARK  160  A    between atoms: _391  and  _394
REMARK  161  A    between atoms: _394  and  _395
REMARK  162  A    between atoms: _398  and  _400
REMARK  163  A    between atoms: _400  and  _401
REMARK  164  A    between atoms: _400  and  _403
REMARK  165  A    between atoms: _403  and  _404
REMARK  166  A    between atoms: _407  and  _409
REMARK  167  A    between atoms: _409  and  _410
REMARK  168  A    between atoms: _409  and  _412
REMARK  169  A    between atoms: _414  and  _416
REMARK  170  A    between atoms: _416  and  _417
REMARK  171  A    between atoms: _416  and  _419
REMARK  172  A    between atoms: _419  and  _420
REMARK  173  A    between atoms: _423  and  _425
REMARK  174  A    between atoms: _425  and  _426
REMARK  175  A    between atoms: _425  and  _428
REMARK  176  A    between atoms: _428  and  _429
REMARK  177  A    between atoms: _432  and  _434
REMARK  178  A    between atoms: _434  and  _435
REMARK  179  A    between atoms: _437  and  _439
REMARK  180  A    between atoms: _439  and  _440
REMARK  181  A    between atoms: _439  and  _442
REMARK  182  A    between atoms: _442  and  _443
REMARK  183  A    between atoms: _443  and  _444
REMARK  184  A    between atoms: _447  and  _449
REMARK  185  A    between atoms: _449  and  _450
REMARK  186  A    between atoms: _449  and  _452
REMARK  187  A    between atoms: _452  and  _453
REMARK  188  A    between atoms: _455  and  _457
REMARK  189  A    between atoms: _457  and  _458
REMARK  190  A    between atoms: _457  and  _460
REMARK  191  A    between atoms: _460  and  _461
REMARK  192  A    between atoms: _461  and  _462
REMARK  193  A    between atoms: _462  and  _463
REMARK  194  A    between atoms: _472  and  _474
REMARK  195  A    between atoms: _474  and  _475
REMARK  196  A    between atoms: _474  and  _477
REMARK  197  A    between atoms: _477  and  _478
REMARK  198  A    between atoms: _481  and  _483
REMARK  199  A    between atoms: _483  and  _484
REMARK  200  A    between atoms: _483  and  _486
REMARK  201  A    between atoms: _486  and  _487
REMARK  202  A    between atoms: _490  and  _492
REMARK  203  A    between atoms: _492  and  _493
REMARK  204  A    between atoms: _492  and  _495
REMARK  205  A    between atoms: _495  and  _496
REMARK  206  A    between atoms: _496  and  _497
REMARK  207  A    between atoms: _497  and  _498
REMARK  208  A    between atoms: _507  and  _509
REMARK  209  A    between atoms: _509  and  _510
REMARK  210  A    between atoms: _509  and  _512
REMARK  211  A    between atoms: _515  and  _517
REMARK  212  A    between atoms: _517  and  _518
REMARK  213  A    between atoms: _517  and  _520
REMARK  214  A    between atoms: _520  and  _521
REMARK  215  A    between atoms: _524  and  _526
REMARK  216  A    between atoms: _526  and  _527
REMARK  217  A    between atoms: _526  and  _529
REMARK  218  A    between atoms: _529  and  _530
REMARK  219  A    between atoms: _530  and  _531
REMARK  220  A    between atoms: _531  and  _532
REMARK  221  A    between atoms: _532  and  _533
REMARK  222  A    between atoms: _537  and  _539
REMARK  223  A    between atoms: _539  and  _540
REMARK  224  A    between atoms: _539  and  _542
REMARK  225  A    between atoms: _542  and  _543
REMARK  226  A    between atoms: _543  and  _544
REMARK  227  A    between atoms: _546  and  _548
REMARK  228  A    between atoms: _548  and  _549
REMARK  229  A    between atoms: _548  and  _551
REMARK  230  A    between atoms: _554  and  _556
REMARK  231  A    between atoms: _556  and  _557
REMARK  232  A    between atoms: _556  and  _559
REMARK  233  A    between atoms: _559  and  _560
REMARK  234  A    between atoms: _570  and  _572
REMARK  235  A    between atoms: _572  and  _573
REMARK  236  A    between atoms: _572  and  _575
REMARK  237  A    between atoms: _575  and  _576
REMARK  238  A    between atoms: _576  and  _577
REMARK  239  A    between atoms: _577  and  _578
REMARK  240  A    between atoms: _578  and  _579
REMARK  241  A    between atoms: _583  and  _585
REMARK  242  A    between atoms: _585  and  _586
REMARK  243  A    between atoms: _585  and  _588
REMARK  244  A    between atoms: _588  and  _589
REMARK  245  A    between atoms: _592  and  _594
REMARK  246  A    between atoms: _594  and  _595
REMARK  247  A    between atoms: _594  and  _597
REMARK  248  A    between atoms: _597  and  _598
REMARK  249  A    between atoms: _603  and  _604
REMARK                            x       y       z     vdW  Elec       q    Type
REMARK                         _______ _______ _______ _____ _____    ______ ____
ROOT
ATOM      1  O   HOH     1       0.985   4.098  41.528  0.00  0.00    +0.000 OA
ENDROOT
TORSDOF 0
REMARK  Name = ../refined-set-2016/3p8z/3p8z_pocket.pdb
REMARK  249 active torsions:
REMARK  status: ('A' for Active; 'I' for Inactive)
REMARK    1  A    between atoms: _1  and  _3
REMARK    2  A    between atoms: _3  and  _4
REMARK    3  A    between atoms: _7  and  _9
REMARK    4  A    between atoms: _9  and  _10
REMARK    5  A    between atoms: _9  and  _12
REMARK    6  A    between atoms: _15  and  _17
REMARK    7  A    between atoms: _17  and  _18
REMARK    8  A    between atoms: _17  and  _20
REMARK    9  A    between atoms: _20  and  _21
REMARK   10  A    between atoms: _23  and  _25
REMARK   11  A    between atoms: _25  and  _26
REMARK   12  A    between atoms: _25  and  _28
REMARK   13  A    between atoms: _28  and  _29
REMARK   14  A    between atoms: _29  and  _30
REMARK   15  A    between atoms: _30  and  _31
REMARK   16  A    between atoms: _40  and  _42
REMARK   17  A    between atoms: _42  and  _43
REMARK   18  A    between atoms: _45  and  _47
REMARK   19  A    between atoms: _47  and  _48
REMARK   20  A    between atoms: _47  and  _50
REMARK   21  A    between atoms: _50  and  _51
REMARK   22  A    between atoms: _53  and  _55
REMARK   23  A    between atoms: _55  and  _56
REMARK   24  A    between atoms: _59  and  _61
REMARK   25  A    between atoms: _61  and  _62
REMARK   26  A    between atoms: _61  and  _64
REMARK   27  A    between atoms: _64  and  _65
REMARK   28  A    between atoms: _65  and  _66
REMARK   29  A    between atoms: _66  and  _67
REMARK   30  A    between atoms: _67  and  _68
REMARK   31  A    between atoms: _72  and  _74
REMARK   32  A    between atoms: _74  and  _75
REMARK   33  A    between atoms: _74  and  _77
REMARK   34  A    between atoms: _77  and  _78
REMARK   35  A    between atoms: _81  and  _83
REMARK   36  A    between atoms: _83  and  _84
REMARK   37  A    between atoms: _83  and  _86
REMARK   38  A    between atoms: _86  and  _87
REMARK   39  A    between atoms: _87  and  _88
REMARK   40  A    between atoms: _93  and  _95
REMARK   41  A    between atoms: _95  and  _96
REMARK   42  A    between atoms: _95  and  _98
REMARK   43  A    between atoms: _98  and  _99
REMARK   44  A    between atoms: _102  and  _104
REMARK   45  A    between atoms: _104  and  _105
REMARK   46  A    between atoms: _104  and  _107
REMARK   47  A    between atoms: _107  and  _108
REMARK   48  A    between atoms: _111  and  _113
REMARK   49  A    between atoms: _113  and  _114
REMARK   50  A    between atoms: _116  and  _118
REMARK   51  A    between atoms: _118  and  _119
REMARK   52  A    between atoms: _118  and  _121
REMARK   53  A    between atoms: _123  and  _125
REMARK   54  A    between atoms: _125  and  _126
REMARK   55  A    between atoms: _128  and  _130
REMARK   56  A    between atoms: _130  and  _131
REMARK   57  A    between atoms: _130  and  _133
REMARK   58  A    between atoms: _133  and  _134
REMARK   59  A    between atoms: _134  and  _135
REMARK   60  A    between atoms: _135  and  _136
REMARK   61  A    between atoms: _145  and  _147
REMARK   62  A    between atoms: _147  and  _148
REMARK   63  A    between atoms: _150  and  _152
REMARK   64  A    between atoms: _152  and  _153
REMARK   65  A    between atoms: _155  and  _157
REMARK   66  A    between atoms: _157  and  _158
REMARK   67  A    between atoms: _157  and  _160
REMARK   68  A    between atoms: _160  and  _161
REMARK   69  A    between atoms: _171  and  _173
REMARK   70  A    between atoms: _173  and  _174
REMARK   71  A    between atoms: _173  and  _176
REMARK   72  A    between atoms: _176  and  _177
REMARK   73  A    between atoms: _179  and  _181
REMARK   74  A    between atoms: _181  and  _182
REMARK   75  A    between atoms: _181  and  _184
REMARK   76  A    between atoms: _184  and  _185
REMARK   77  A    between atoms: _190  and  _191
REMARK   78  A    between atoms: _193  and  _195
REMARK   79  A    between atoms: _195  and  _196
REMARK   80  A    between atoms: _195  and  _198
REMARK   81  A    between atoms: _198  and  _199
REMARK   82  A    between atoms: _204  and  _205
REMARK   83  A    between atoms: _207  and  _209
REMARK   84  A    between atoms: _209  and  _210
REMARK   85  A    between atoms: _209  and  _212
REMARK   86  A    between atoms: _212  and  _213
REMARK   87  A    between atoms: _218  and  _219
REMARK   88  A    between atoms: _221  and  _223
REMARK   89  A    between atoms: _223  and  _224
REMARK   90  A    between atoms: _223  and  _226
REMARK   91  A    between atoms: _226  and  _227
REMARK   92  A    between atoms: _230  and  _232
REMARK   93  A    between atoms: _232  and  _233
REMARK   94  A    between atoms: _232  and  _235
REMARK   95  A    between atoms: _235  and  _236
REMARK   96  A    between atoms: _236  and  _237
REMARK   97  A    between atoms: _237  and  _238
REMARK   98  A    between atoms: _238  and  _239
REMARK   99  A    between atoms: _243  and  _245
REMARK  100  A    between atoms: _245  and  _246
REMARK  101  A    between atoms: _248  and  _250
REMARK  102  A    between atoms: _250  and  _251
REMARK  103  A    between atoms: _254  and  _255
REMARK  104  A    between atoms: _260  and  _262
REMARK  105  A    between atoms: _262  and  _263
REMARK  106  A    between atoms: _265  and  _267
REMARK  107  A    between atoms: _267  and  _268
REMARK  108  A    between atoms: _267  and  _270
REMARK  109  A    between atoms: _270  and  _271
REMARK  110  A    between atoms: _276  and  _278
REMARK  111  A    between atoms: _278  and  _279
REMARK  112  A    between atoms: _278  and  _281
REMARK  113  A    between atoms: _281  and  _282
REMARK  114  A    between atoms: _282  and  _283
REMARK  115  A    between atoms: _286  and  _288
REMARK  116  A    between atoms: _288  and  _289
REMARK  117  A    between atoms: _288  and  _291
REMARK  118  A    between atoms: _291  and  _292
REMARK  119  A    between atoms: _292  and  _293
REMARK  120  A    between atoms: _297  and  _298
REMARK  121  A    between atoms: _303  and  _305
REMARK  122  A    between atoms: _305  and  _306
REMARK  123  A    between atoms: _305  and  _308
REMARK  124  A    between atoms: _311  and  _313
REMARK  125  A    between atoms: _313  and  _314
REMARK  126  A    between atoms: _313  and  _316
REMARK  127  A    between atoms: _316  and  _317
REMARK  128  A    between atoms: _317  and  _318
REMARK  129  A    between atoms: _320  and  _322
REMARK  130  A    between atoms: _322  and  _323
REMARK  131  A    between atoms: _322  and  _325
REMARK  132  A    between atoms: _325  and  _326
REMARK  133  A    between atoms: _328  and  _330
REMARK  134  A    between atoms: _330  and  _331
REMARK  135  A    between atoms: _333  and  _335
REMARK  136  A    between atoms: _335  and  _336
REMARK  137  A    between atoms: _335  and  _338
REMARK  138  A    between atoms: _338  and  _339
REMARK  139  A    between atoms: _339  and  _340
REMARK  140  A    between atoms: _340  and  _341
REMARK  141  A    between atoms: _341  and  _342
REMARK  142  A    between atoms: _346  and  _348
REMARK  143  A    between atoms: _348  and  _349
REMARK  144  A    between atoms: _348  and  _351
REMARK  145  A    between atoms: _351  and  _352
REMARK  146  A    between atoms: _355  and  _357
REMARK  147  A    between atoms: _357  and  _358
REMARK  148  A    between atoms: _357  and  _360
REMARK  149  A    between atoms: _363  and  _365
REMARK  150  A    between atoms: _365  and  _366
REMARK  151  A    between atoms: _365  and  _368
REMARK  152  A    between atoms: _368  and  _369
REMARK  153  A    between atoms: _375  and  _377
REMARK  154  A    between atoms: _377  and  _378
REMARK  155  A    between atoms: _377  and  _380
REMARK  156  A    between atoms: _380  and  _381
REMARK  157  A    between atoms: _386  and  _387
REMARK  158  A    between atoms: _389  and  _391
REMARK  159  A    between atoms: _391  and  _392
REMARK  160  A    between atoms: _391  and  _394
REMARK  161  A    between atoms: _394  and  _395
REMARK  162  A    between atoms: _398  and  _400
REMARK  163  A    between atoms: _400  and  _401
REMARK  164  A    between atoms: _400  and  _403
REMARK  165  A    between atoms: _403  and  _404
REMARK  166  A    between atoms: _407  and  _409
REMARK  167  A    between atoms: _409  and  _410
REMARK  168  A    between atoms: _409  and  _412
REMARK  169  A    between atoms: _414  and  _416
REMARK  170  A    between atoms: _416  and  _417
REMARK  171  A    between atoms: _416  and  _419
REMARK  172  A    between atoms: _419  and  _420
REMARK  173  A    between atoms: _423  and  _425
REMARK  174  A    between atoms: _425  and  _426
REMARK  175  A    between atoms: _425  and  _428
REMARK  176  A    between atoms: _428  and  _429
REMARK  177  A    between atoms: _432  and  _434
REMARK  178  A    between atoms: _434  and  _435
REMARK  179  A    between atoms: _437  and  _439
REMARK  180  A    between atoms: _439  and  _440
REMARK  181  A    between atoms: _439  and  _442
REMARK  182  A    between atoms: _442  and  _443
REMARK  183  A    between atoms: _443  and  _444
REMARK  184  A    between atoms: _447  and  _449
REMARK  185  A    between atoms: _449  and  _450
REMARK  186  A    between atoms: _449  and  _452
REMARK  187  A    between atoms: _452  and  _453
REMARK  188  A    between atoms: _455  and  _457
REMARK  189  A    between atoms: _457  and  _458
REMARK  190  A    between atoms: _457  and  _460
REMARK  191  A    between atoms: _460  and  _461
REMARK  192  A    between atoms: _461  and  _462
REMARK  193  A    between atoms: _462  and  _463
REMARK  194  A    between atoms: _472  and  _474
REMARK  195  A    between atoms: _474  and  _475
REMARK  196  A    between atoms: _474  and  _477
REMARK  197  A    between atoms: _477  and  _478
REMARK  198  A    between atoms: _481  and  _483
REMARK  199  A    between atoms: _483  and  _484
REMARK  200  A    between atoms: _483  and  _486
REMARK  201  A    between atoms: _486  and  _487
REMARK  202  A    between atoms: _490  and  _492
REMARK  203  A    between atoms: _492  and  _493
REMARK  204  A    between atoms: _492  and  _495
REMARK  205  A    between atoms: _495  and  _496
REMARK  206  A    between atoms: _496  and  _497
REMARK  207  A    between atoms: _497  and  _498
REMARK  208  A    between atoms: _507  and  _509
REMARK  209  A    between atoms: _509  and  _510
REMARK  210  A    between atoms: _509  and  _512
REMARK  211  A    between atoms: _515  and  _517
REMARK  212  A    between atoms: _517  and  _518
REMARK  213  A    between atoms: _517  and  _520
REMARK  214  A    between atoms: _520  and  _521
REMARK  215  A    between atoms: _524  and  _526
REMARK  216  A    between atoms: _526  and  _527
REMARK  217  A    between atoms: _526  and  _529
REMARK  218  A    between atoms: _529  and  _530
REMARK  219  A    between atoms: _530  and  _531
REMARK  220  A    between atoms: _531  and  _532
REMARK  221  A    between atoms: _532  and  _533
REMARK  222  A    between atoms: _537  and  _539
REMARK  223  A    between atoms: _539  and  _540
REMARK  224  A    between atoms: _539  and  _542
REMARK  225  A    between atoms: _542  and  _543
REMARK  226  A    between atoms: _543  and  _544
REMARK  227  A    between atoms: _546  and  _548
REMARK  228  A    between atoms: _548  and  _549
REMARK  229  A    between atoms: _548  and  _551
REMARK  230  A    between atoms: _554  and  _556
REMARK  231  A    between atoms: _556  and  _557
REMARK  232  A    between atoms: _556  and  _559
REMARK  233  A    between atoms: _559  and  _560
REMARK  234  A    between atoms: _570  and  _572
REMARK  235  A    between atoms: _572  and  _573
REMARK  236  A    between atoms: _572  and  _575
REMARK  237  A    between atoms: _575  and  _576
REMARK  238  A    between atoms: _576  and  _577
REMARK  239  A    between atoms: _577  and  _578
REMARK  240  A    between atoms: _578  and  _579
REMARK  241  A    between atoms: _583  and  _585
REMARK  242  A    between atoms: _585  and  _586
REMARK  243  A    between atoms: _585  and  _588
REMARK  244  A    between atoms: _588  and  _589
REMARK  245  A    between atoms: _592  and  _594
REMARK  246  A    between atoms: _594  and  _595
REMARK  247  A    between atoms: _594  and  _597
REMARK  248  A    between atoms: _597  and  _598
REMARK  249  A    between atoms: _603  and  _604
REMARK                            x       y       z     vdW  Elec       q    Type
REMARK                         _______ _______ _______ _____ _____    ______ ____
ROOT
ATOM      1  O   HOH     1       4.711  -7.325  48.605  0.00  0.00    +0.000 OA
ENDROOT
TORSDOF 0
REMARK  Name = ../refined-set-2016/3p8z/3p8z_pocket.pdb
REMARK  249 active torsions:
REMARK  status: ('A' for Active; 'I' for Inactive)
REMARK    1  A    between atoms: _1  and  _3
REMARK    2  A    between atoms: _3  and  _4
REMARK    3  A    between atoms: _7  and  _9
REMARK    4  A    between atoms: _9  and  _10
REMARK    5  A    between atoms: _9  and  _12
REMARK    6  A    between atoms: _15  and  _17
REMARK    7  A    between atoms: _17  and  _18
REMARK    8  A    between atoms: _17  and  _20
REMARK    9  A    between atoms: _20  and  _21
REMARK   10  A    between atoms: _23  and  _25
REMARK   11  A    between atoms: _25  and  _26
REMARK   12  A    between atoms: _25  and  _28
REMARK   13  A    between atoms: _28  and  _29
REMARK   14  A    between atoms: _29  and  _30
REMARK   15  A    between atoms: _30  and  _31
REMARK   16  A    between atoms: _40  and  _42
REMARK   17  A    between atoms: _42  and  _43
REMARK   18  A    between atoms: _45  and  _47
REMARK   19  A    between atoms: _47  and  _48
REMARK   20  A    between atoms: _47  and  _50
REMARK   21  A    between atoms: _50  and  _51
REMARK   22  A    between atoms: _53  and  _55
REMARK   23  A    between atoms: _55  and  _56
REMARK   24  A    between atoms: _59  and  _61
REMARK   25  A    between atoms: _61  and  _62
REMARK   26  A    between atoms: _61  and  _64
REMARK   27  A    between atoms: _64  and  _65
REMARK   28  A    between atoms: _65  and  _66
REMARK   29  A    between atoms: _66  and  _67
REMARK   30  A    between atoms: _67  and  _68
REMARK   31  A    between atoms: _72  and  _74
REMARK   32  A    between atoms: _74  and  _75
REMARK   33  A    between atoms: _74  and  _77
REMARK   34  A    between atoms: _77  and  _78
REMARK   35  A    between atoms: _81  and  _83
REMARK   36  A    between atoms: _83  and  _84
REMARK   37  A    between atoms: _83  and  _86
REMARK   38  A    between atoms: _86  and  _87
REMARK   39  A    between atoms: _87  and  _88
REMARK   40  A    between atoms: _93  and  _95
REMARK   41  A    between atoms: _95  and  _96
REMARK   42  A    between atoms: _95  and  _98
REMARK   43  A    between atoms: _98  and  _99
REMARK   44  A    between atoms: _102  and  _104
REMARK   45  A    between atoms: _104  and  _105
REMARK   46  A    between atoms: _104  and  _107
REMARK   47  A    between atoms: _107  and  _108
REMARK   48  A    between atoms: _111  and  _113
REMARK   49  A    between atoms: _113  and  _114
REMARK   50  A    between atoms: _116  and  _118
REMARK   51  A    between atoms: _118  and  _119
REMARK   52  A    between atoms: _118  and  _121
REMARK   53  A    between atoms: _123  and  _125
REMARK   54  A    between atoms: _125  and  _126
REMARK   55  A    between atoms: _128  and  _130
REMARK   56  A    between atoms: _130  and  _131
REMARK   57  A    between atoms: _130  and  _133
REMARK   58  A    between atoms: _133  and  _134
REMARK   59  A    between atoms: _134  and  _135
REMARK   60  A    between atoms: _135  and  _136
REMARK   61  A    between atoms: _145  and  _147
REMARK   62  A    between atoms: _147  and  _148
REMARK   63  A    between atoms: _150  and  _152
REMARK   64  A    between atoms: _152  and  _153
REMARK   65  A    between atoms: _155  and  _157
REMARK   66  A    between atoms: _157  and  _158
REMARK   67  A    between atoms: _157  and  _160
REMARK   68  A    between atoms: _160  and  _161
REMARK   69  A    between atoms: _171  and  _173
REMARK   70  A    between atoms: _173  and  _174
REMARK   71  A    between atoms: _173  and  _176
REMARK   72  A    between atoms: _176  and  _177
REMARK   73  A    between atoms: _179  and  _181
REMARK   74  A    between atoms: _181  and  _182
REMARK   75  A    between atoms: _181  and  _184
REMARK   76  A    between atoms: _184  and  _185
REMARK   77  A    between atoms: _190  and  _191
REMARK   78  A    between atoms: _193  and  _195
REMARK   79  A    between atoms: _195  and  _196
REMARK   80  A    between atoms: _195  and  _198
REMARK   81  A    between atoms: _198  and  _199
REMARK   82  A    between atoms: _204  and  _205
REMARK   83  A    between atoms: _207  and  _209
REMARK   84  A    between atoms: _209  and  _210
REMARK   85  A    between atoms: _209  and  _212
REMARK   86  A    between atoms: _212  and  _213
REMARK   87  A    between atoms: _218  and  _219
REMARK   88  A    between atoms: _221  and  _223
REMARK   89  A    between atoms: _223  and  _224
REMARK   90  A    between atoms: _223  and  _226
REMARK   91  A    between atoms: _226  and  _227
REMARK   92  A    between atoms: _230  and  _232
REMARK   93  A    between atoms: _232  and  _233
REMARK   94  A    between atoms: _232  and  _235
REMARK   95  A    between atoms: _235  and  _236
REMARK   96  A    between atoms: _236  and  _237
REMARK   97  A    between atoms: _237  and  _238
REMARK   98  A    between atoms: _238  and  _239
REMARK   99  A    between atoms: _243  and  _245
REMARK  100  A    between atoms: _245  and  _246
REMARK  101  A    between atoms: _248  and  _250
REMARK  102  A    between atoms: _250  and  _251
REMARK  103  A    between atoms: _254  and  _255
REMARK  104  A    between atoms: _260  and  _262
REMARK  105  A    between atoms: _262  and  _263
REMARK  106  A    between atoms: _265  and  _267
REMARK  107  A    between atoms: _267  and  _268
REMARK  108  A    between atoms: _267  and  _270
REMARK  109  A    between atoms: _270  and  _271
REMARK  110  A    between atoms: _276  and  _278
REMARK  111  A    between atoms: _278  and  _279
REMARK  112  A    between atoms: _278  and  _281
REMARK  113  A    between atoms: _281  and  _282
REMARK  114  A    between atoms: _282  and  _283
REMARK  115  A    between atoms: _286  and  _288
REMARK  116  A    between atoms: _288  and  _289
REMARK  117  A    between atoms: _288  and  _291
REMARK  118  A    between atoms: _291  and  _292
REMARK  119  A    between atoms: _292  and  _293
REMARK  120  A    between atoms: _297  and  _298
REMARK  121  A    between atoms: _303  and  _305
REMARK  122  A    between atoms: _305  and  _306
REMARK  123  A    between atoms: _305  and  _308
REMARK  124  A    between atoms: _311  and  _313
REMARK  125  A    between atoms: _313  and  _314
REMARK  126  A    between atoms: _313  and  _316
REMARK  127  A    between atoms: _316  and  _317
REMARK  128  A    between atoms: _317  and  _318
REMARK  129  A    between atoms: _320  and  _322
REMARK  130  A    between atoms: _322  and  _323
REMARK  131  A    between atoms: _322  and  _325
REMARK  132  A    between atoms: _325  and  _326
REMARK  133  A    between atoms: _328  and  _330
REMARK  134  A    between atoms: _330  and  _331
REMARK  135  A    between atoms: _333  and  _335
REMARK  136  A    between atoms: _335  and  _336
REMARK  137  A    between atoms: _335  and  _338
REMARK  138  A    between atoms: _338  and  _339
REMARK  139  A    between atoms: _339  and  _340
REMARK  140  A    between atoms: _340  and  _341
REMARK  141  A    between atoms: _341  and  _342
REMARK  142  A    between atoms: _346  and  _348
REMARK  143  A    between atoms: _348  and  _349
REMARK  144  A    between atoms: _348  and  _351
REMARK  145  A    between atoms: _351  and  _352
REMARK  146  A    between atoms: _355  and  _357
REMARK  147  A    between atoms: _357  and  _358
REMARK  148  A    between atoms: _357  and  _360
REMARK  149  A    between atoms: _363  and  _365
REMARK  150  A    between atoms: _365  and  _366
REMARK  151  A    between atoms: _365  and  _368
REMARK  152  A    between atoms: _368  and  _369
REMARK  153  A    between atoms: _375  and  _377
REMARK  154  A    between atoms: _377  and  _378
REMARK  155  A    between atoms: _377  and  _380
REMARK  156  A    between atoms: _380  and  _381
REMARK  157  A    between atoms: _386  and  _387
REMARK  158  A    between atoms: _389  and  _391
REMARK  159  A    between atoms: _391  and  _392
REMARK  160  A    between atoms: _391  and  _394
REMARK  161  A    between atoms: _394  and  _395
REMARK  162  A    between atoms: _398  and  _400
REMARK  163  A    between atoms: _400  and  _401
REMARK  164  A    between atoms: _400  and  _403
REMARK  165  A    between atoms: _403  and  _404
REMARK  166  A    between atoms: _407  and  _409
REMARK  167  A    between atoms: _409  and  _410
REMARK  168  A    between atoms: _409  and  _412
REMARK  169  A    between atoms: _414  and  _416
REMARK  170  A    between atoms: _416  and  _417
REMARK  171  A    between atoms: _416  and  _419
REMARK  172  A    between atoms: _419  and  _420
REMARK  173  A    between atoms: _423  and  _425
REMARK  174  A    between atoms: _425  and  _426
REMARK  175  A    between atoms: _425  and  _428
REMARK  176  A    between atoms: _428  and  _429
REMARK  177  A    between atoms: _432  and  _434
REMARK  178  A    between atoms: _434  and  _435
REMARK  179  A    between atoms: _437  and  _439
REMARK  180  A    between atoms: _439  and  _440
REMARK  181  A    between atoms: _439  and  _442
REMARK  182  A    between atoms: _442  and  _443
REMARK  183  A    between atoms: _443  and  _444
REMARK  184  A    between atoms: _447  and  _449
REMARK  185  A    between atoms: _449  and  _450
REMARK  186  A    between atoms: _449  and  _452
REMARK  187  A    between atoms: _452  and  _453
REMARK  188  A    between atoms: _455  and  _457
REMARK  189  A    between atoms: _457  and  _458
REMARK  190  A    between atoms: _457  and  _460
REMARK  191  A    between atoms: _460  and  _461
REMARK  192  A    between atoms: _461  and  _462
REMARK  193  A    between atoms: _462  and  _463
REMARK  194  A    between atoms: _472  and  _474
REMARK  195  A    between atoms: _474  and  _475
REMARK  196  A    between atoms: _474  and  _477
REMARK  197  A    between atoms: _477  and  _478
REMARK  198  A    between atoms: _481  and  _483
REMARK  199  A    between atoms: _483  and  _484
REMARK  200  A    between atoms: _483  and  _486
REMARK  201  A    between atoms: _486  and  _487
REMARK  202  A    between atoms: _490  and  _492
REMARK  203  A    between atoms: _492  and  _493
REMARK  204  A    between atoms: _492  and  _495
REMARK  205  A    between atoms: _495  and  _496
REMARK  206  A    between atoms: _496  and  _497
REMARK  207  A    between atoms: _497  and  _498
REMARK  208  A    between atoms: _507  and  _509
REMARK  209  A    between atoms: _509  and  _510
REMARK  210  A    between atoms: _509  and  _512
REMARK  211  A    between atoms: _515  and  _517
REMARK  212  A    between atoms: _517  and  _518
REMARK  213  A    between atoms: _517  and  _520
REMARK  214  A    between atoms: _520  and  _521
REMARK  215  A    between atoms: _524  and  _526
REMARK  216  A    between atoms: _526  and  _527
REMARK  217  A    between atoms: _526  and  _529
REMARK  218  A    between atoms: _529  and  _530
REMARK  219  A    between atoms: _530  and  _531
REMARK  220  A    between atoms: _531  and  _532
REMARK  221  A    between atoms: _532  and  _533
REMARK  222  A    between atoms: _537  and  _539
REMARK  223  A    between atoms: _539  and  _540
REMARK  224  A    between atoms: _539  and  _542
REMARK  225  A    between atoms: _542  and  _543
REMARK  226  A    between atoms: _543  and  _544
REMARK  227  A    between atoms: _546  and  _548
REMARK  228  A    between atoms: _548  and  _549
REMARK  229  A    between atoms: _548  and  _551
REMARK  230  A    between atoms: _554  and  _556
REMARK  231  A    between atoms: _556  and  _557
REMARK  232  A    between atoms: _556  and  _559
REMARK  233  A    between atoms: _559  and  _560
REMARK  234  A    between atoms: _570  and  _572
REMARK  235  A    between atoms: _572  and  _573
REMARK  236  A    between atoms: _572  and  _575
REMARK  237  A    between atoms: _575  and  _576
REMARK  238  A    between atoms: _576  and  _577
REMARK  239  A    between atoms: _577  and  _578
REMARK  240  A    between atoms: _578  and  _579
REMARK  241  A    between atoms: _583  and  _585
REMARK  242  A    between atoms: _585  and  _586
REMARK  243  A    between atoms: _585  and  _588
REMARK  244  A    between atoms: _588  and  _589
REMARK  245  A    between atoms: _592  and  _594
REMARK  246  A    between atoms: _594  and  _595
REMARK  247  A    between atoms: _594  and  _597
REMARK  248  A    between atoms: _597  and  _598
REMARK  249  A    between atoms: _603  and  _604
REMARK                            x       y       z     vdW  Elec       q    Type
REMARK                         _______ _______ _______ _____ _____    ______ ____
ROOT
ATOM      1  O   HOH     1      11.496   7.874  35.555  0.00  0.00    +0.000 OA
ENDROOT
TORSDOF 0
REMARK  Name = ../refined-set-2016/3p8z/3p8z_pocket.pdb
REMARK  249 active torsions:
REMARK  status: ('A' for Active; 'I' for Inactive)
REMARK    1  A    between atoms: _1  and  _3
REMARK    2  A    between atoms: _3  and  _4
REMARK    3  A    between atoms: _7  and  _9
REMARK    4  A    between atoms: _9  and  _10
REMARK    5  A    between atoms: _9  and  _12
REMARK    6  A    between atoms: _15  and  _17
REMARK    7  A    between atoms: _17  and  _18
REMARK    8  A    between atoms: _17  and  _20
REMARK    9  A    between atoms: _20  and  _21
REMARK   10  A    between atoms: _23  and  _25
REMARK   11  A    between atoms: _25  and  _26
REMARK   12  A    between atoms: _25  and  _28
REMARK   13  A    between atoms: _28  and  _29
REMARK   14  A    between atoms: _29  and  _30
REMARK   15  A    between atoms: _30  and  _31
REMARK   16  A    between atoms: _40  and  _42
REMARK   17  A    between atoms: _42  and  _43
REMARK   18  A    between atoms: _45  and  _47
REMARK   19  A    between atoms: _47  and  _48
REMARK   20  A    between atoms: _47  and  _50
REMARK   21  A    between atoms: _50  and  _51
REMARK   22  A    between atoms: _53  and  _55
REMARK   23  A    between atoms: _55  and  _56
REMARK   24  A    between atoms: _59  and  _61
REMARK   25  A    between atoms: _61  and  _62
REMARK   26  A    between atoms: _61  and  _64
REMARK   27  A    between atoms: _64  and  _65
REMARK   28  A    between atoms: _65  and  _66
REMARK   29  A    between atoms: _66  and  _67
REMARK   30  A    between atoms: _67  and  _68
REMARK   31  A    between atoms: _72  and  _74
REMARK   32  A    between atoms: _74  and  _75
REMARK   33  A    between atoms: _74  and  _77
REMARK   34  A    between atoms: _77  and  _78
REMARK   35  A    between atoms: _81  and  _83
REMARK   36  A    between atoms: _83  and  _84
REMARK   37  A    between atoms: _83  and  _86
REMARK   38  A    between atoms: _86  and  _87
REMARK   39  A    between atoms: _87  and  _88
REMARK   40  A    between atoms: _93  and  _95
REMARK   41  A    between atoms: _95  and  _96
REMARK   42  A    between atoms: _95  and  _98
REMARK   43  A    between atoms: _98  and  _99
REMARK   44  A    between atoms: _102  and  _104
REMARK   45  A    between atoms: _104  and  _105
REMARK   46  A    between atoms: _104  and  _107
REMARK   47  A    between atoms: _107  and  _108
REMARK   48  A    between atoms: _111  and  _113
REMARK   49  A    between atoms: _113  and  _114
REMARK   50  A    between atoms: _116  and  _118
REMARK   51  A    between atoms: _118  and  _119
REMARK   52  A    between atoms: _118  and  _121
REMARK   53  A    between atoms: _123  and  _125
REMARK   54  A    between atoms: _125  and  _126
REMARK   55  A    between atoms: _128  and  _130
REMARK   56  A    between atoms: _130  and  _131
REMARK   57  A    between atoms: _130  and  _133
REMARK   58  A    between atoms: _133  and  _134
REMARK   59  A    between atoms: _134  and  _135
REMARK   60  A    between atoms: _135  and  _136
REMARK   61  A    between atoms: _145  and  _147
REMARK   62  A    between atoms: _147  and  _148
REMARK   63  A    between atoms: _150  and  _152
REMARK   64  A    between atoms: _152  and  _153
REMARK   65  A    between atoms: _155  and  _157
REMARK   66  A    between atoms: _157  and  _158
REMARK   67  A    between atoms: _157  and  _160
REMARK   68  A    between atoms: _160  and  _161
REMARK   69  A    between atoms: _171  and  _173
REMARK   70  A    between atoms: _173  and  _174
REMARK   71  A    between atoms: _173  and  _176
REMARK   72  A    between atoms: _176  and  _177
REMARK   73  A    between atoms: _179  and  _181
REMARK   74  A    between atoms: _181  and  _182
REMARK   75  A    between atoms: _181  and  _184
REMARK   76  A    between atoms: _184  and  _185
REMARK   77  A    between atoms: _190  and  _191
REMARK   78  A    between atoms: _193  and  _195
REMARK   79  A    between atoms: _195  and  _196
REMARK   80  A    between atoms: _195  and  _198
REMARK   81  A    between atoms: _198  and  _199
REMARK   82  A    between atoms: _204  and  _205
REMARK   83  A    between atoms: _207  and  _209
REMARK   84  A    between atoms: _209  and  _210
REMARK   85  A    between atoms: _209  and  _212
REMARK   86  A    between atoms: _212  and  _213
REMARK   87  A    between atoms: _218  and  _219
REMARK   88  A    between atoms: _221  and  _223
REMARK   89  A    between atoms: _223  and  _224
REMARK   90  A    between atoms: _223  and  _226
REMARK   91  A    between atoms: _226  and  _227
REMARK   92  A    between atoms: _230  and  _232
REMARK   93  A    between atoms: _232  and  _233
REMARK   94  A    between atoms: _232  and  _235
REMARK   95  A    between atoms: _235  and  _236
REMARK   96  A    between atoms: _236  and  _237
REMARK   97  A    between atoms: _237  and  _238
REMARK   98  A    between atoms: _238  and  _239
REMARK   99  A    between atoms: _243  and  _245
REMARK  100  A    between atoms: _245  and  _246
REMARK  101  A    between atoms: _248  and  _250
REMARK  102  A    between atoms: _250  and  _251
REMARK  103  A    between atoms: _254  and  _255
REMARK  104  A    between atoms: _260  and  _262
REMARK  105  A    between atoms: _262  and  _263
REMARK  106  A    between atoms: _265  and  _267
REMARK  107  A    between atoms: _267  and  _268
REMARK  108  A    between atoms: _267  and  _270
REMARK  109  A    between atoms: _270  and  _271
REMARK  110  A    between atoms: _276  and  _278
REMARK  111  A    between atoms: _278  and  _279
REMARK  112  A    between atoms: _278  and  _281
REMARK  113  A    between atoms: _281  and  _282
REMARK  114  A    between atoms: _282  and  _283
REMARK  115  A    between atoms: _286  and  _288
REMARK  116  A    between atoms: _288  and  _289
REMARK  117  A    between atoms: _288  and  _291
REMARK  118  A    between atoms: _291  and  _292
REMARK  119  A    between atoms: _292  and  _293
REMARK  120  A    between atoms: _297  and  _298
REMARK  121  A    between atoms: _303  and  _305
REMARK  122  A    between atoms: _305  and  _306
REMARK  123  A    between atoms: _305  and  _308
REMARK  124  A    between atoms: _311  and  _313
REMARK  125  A    between atoms: _313  and  _314
REMARK  126  A    between atoms: _313  and  _316
REMARK  127  A    between atoms: _316  and  _317
REMARK  128  A    between atoms: _317  and  _318
REMARK  129  A    between atoms: _320  and  _322
REMARK  130  A    between atoms: _322  and  _323
REMARK  131  A    between atoms: _322  and  _325
REMARK  132  A    between atoms: _325  and  _326
REMARK  133  A    between atoms: _328  and  _330
REMARK  134  A    between atoms: _330  and  _331
REMARK  135  A    between atoms: _333  and  _335
REMARK  136  A    between atoms: _335  and  _336
REMARK  137  A    between atoms: _335  and  _338
REMARK  138  A    between atoms: _338  and  _339
REMARK  139  A    between atoms: _339  and  _340
REMARK  140  A    between atoms: _340  and  _341
REMARK  141  A    between atoms: _341  and  _342
REMARK  142  A    between atoms: _346  and  _348
REMARK  143  A    between atoms: _348  and  _349
REMARK  144  A    between atoms: _348  and  _351
REMARK  145  A    between atoms: _351  and  _352
REMARK  146  A    between atoms: _355  and  _357
REMARK  147  A    between atoms: _357  and  _358
REMARK  148  A    between atoms: _357  and  _360
REMARK  149  A    between atoms: _363  and  _365
REMARK  150  A    between atoms: _365  and  _366
REMARK  151  A    between atoms: _365  and  _368
REMARK  152  A    between atoms: _368  and  _369
REMARK  153  A    between atoms: _375  and  _377
REMARK  154  A    between atoms: _377  and  _378
REMARK  155  A    between atoms: _377  and  _380
REMARK  156  A    between atoms: _380  and  _381
REMARK  157  A    between atoms: _386  and  _387
REMARK  158  A    between atoms: _389  and  _391
REMARK  159  A    between atoms: _391  and  _392
REMARK  160  A    between atoms: _391  and  _394
REMARK  161  A    between atoms: _394  and  _395
REMARK  162  A    between atoms: _398  and  _400
REMARK  163  A    between atoms: _400  and  _401
REMARK  164  A    between atoms: _400  and  _403
REMARK  165  A    between atoms: _403  and  _404
REMARK  166  A    between atoms: _407  and  _409
REMARK  167  A    between atoms: _409  and  _410
REMARK  168  A    between atoms: _409  and  _412
REMARK  169  A    between atoms: _414  and  _416
REMARK  170  A    between atoms: _416  and  _417
REMARK  171  A    between atoms: _416  and  _419
REMARK  172  A    between atoms: _419  and  _420
REMARK  173  A    between atoms: _423  and  _425
REMARK  174  A    between atoms: _425  and  _426
REMARK  175  A    between atoms: _425  and  _428
REMARK  176  A    between atoms: _428  and  _429
REMARK  177  A    between atoms: _432  and  _434
REMARK  178  A    between atoms: _434  and  _435
REMARK  179  A    between atoms: _437  and  _439
REMARK  180  A    between atoms: _439  and  _440
REMARK  181  A    between atoms: _439  and  _442
REMARK  182  A    between atoms: _442  and  _443
REMARK  183  A    between atoms: _443  and  _444
REMARK  184  A    between atoms: _447  and  _449
REMARK  185  A    between atoms: _449  and  _450
REMARK  186  A    between atoms: _449  and  _452
REMARK  187  A    between atoms: _452  and  _453
REMARK  188  A    between atoms: _455  and  _457
REMARK  189  A    between atoms: _457  and  _458
REMARK  190  A    between atoms: _457  and  _460
REMARK  191  A    between atoms: _460  and  _461
REMARK  192  A    between atoms: _461  and  _462
REMARK  193  A    between atoms: _462  and  _463
REMARK  194  A    between atoms: _472  and  _474
REMARK  195  A    between atoms: _474  and  _475
REMARK  196  A    between atoms: _474  and  _477
REMARK  197  A    between atoms: _477  and  _478
REMARK  198  A    between atoms: _481  and  _483
REMARK  199  A    between atoms: _483  and  _484
REMARK  200  A    between atoms: _483  and  _486
REMARK  201  A    between atoms: _486  and  _487
REMARK  202  A    between atoms: _490  and  _492
REMARK  203  A    between atoms: _492  and  _493
REMARK  204  A    between atoms: _492  and  _495
REMARK  205  A    between atoms: _495  and  _496
REMARK  206  A    between atoms: _496  and  _497
REMARK  207  A    between atoms: _497  and  _498
REMARK  208  A    between atoms: _507  and  _509
REMARK  209  A    between atoms: _509  and  _510
REMARK  210  A    between atoms: _509  and  _512
REMARK  211  A    between atoms: _515  and  _517
REMARK  212  A    between atoms: _517  and  _518
REMARK  213  A    between atoms: _517  and  _520
REMARK  214  A    between atoms: _520  and  _521
REMARK  215  A    between atoms: _524  and  _526
REMARK  216  A    between atoms: _526  and  _527
REMARK  217  A    between atoms: _526  and  _529
REMARK  218  A    between atoms: _529  and  _530
REMARK  219  A    between atoms: _530  and  _531
REMARK  220  A    between atoms: _531  and  _532
REMARK  221  A    between atoms: _532  and  _533
REMARK  222  A    between atoms: _537  and  _539
REMARK  223  A    between atoms: _539  and  _540
REMARK  224  A    between atoms: _539  and  _542
REMARK  225  A    between atoms: _542  and  _543
REMARK  226  A    between atoms: _543  and  _544
REMARK  227  A    between atoms: _546  and  _548
REMARK  228  A    between atoms: _548  and  _549
REMARK  229  A    between atoms: _548  and  _551
REMARK  230  A    between atoms: _554  and  _556
REMARK  231  A    between atoms: _556  and  _557
REMARK  232  A    between atoms: _556  and  _559
REMARK  233  A    between atoms: _559  and  _560
REMARK  234  A    between atoms: _570  and  _572
REMARK  235  A    between atoms: _572  and  _573
REMARK  236  A    between atoms: _572  and  _575
REMARK  237  A    between atoms: _575  and  _576
REMARK  238  A    between atoms: _576  and  _577
REMARK  239  A    between atoms: _577  and  _578
REMARK  240  A    between atoms: _578  and  _579
REMARK  241  A    between atoms: _583  and  _585
REMARK  242  A    between atoms: _585  and  _586
REMARK  243  A    between atoms: _585  and  _588
REMARK  244  A    between atoms: _588  and  _589
REMARK  245  A    between atoms: _592  and  _594
REMARK  246  A    between atoms: _594  and  _595
REMARK  247  A    between atoms: _594  and  _597
REMARK  248  A    between atoms: _597  and  _598
REMARK  249  A    between atoms: _603  and  _604
REMARK                            x       y       z     vdW  Elec       q    Type
REMARK                         _______ _______ _______ _____ _____    ______ ____
ROOT
ATOM      1  O   HOH     1      12.092   5.728  33.234  0.00  0.00    +0.000 OA
ENDROOT
TORSDOF 0
REMARK  Name = ../refined-set-2016/3p8z/3p8z_pocket.pdb
REMARK  249 active torsions:
REMARK  status: ('A' for Active; 'I' for Inactive)
REMARK    1  A    between atoms: _1  and  _3
REMARK    2  A    between atoms: _3  and  _4
REMARK    3  A    between atoms: _7  and  _9
REMARK    4  A    between atoms: _9  and  _10
REMARK    5  A    between atoms: _9  and  _12
REMARK    6  A    between atoms: _15  and  _17
REMARK    7  A    between atoms: _17  and  _18
REMARK    8  A    between atoms: _17  and  _20
REMARK    9  A    between atoms: _20  and  _21
REMARK   10  A    between atoms: _23  and  _25
REMARK   11  A    between atoms: _25  and  _26
REMARK   12  A    between atoms: _25  and  _28
REMARK   13  A    between atoms: _28  and  _29
REMARK   14  A    between atoms: _29  and  _30
REMARK   15  A    between atoms: _30  and  _31
REMARK   16  A    between atoms: _40  and  _42
REMARK   17  A    between atoms: _42  and  _43
REMARK   18  A    between atoms: _45  and  _47
REMARK   19  A    between atoms: _47  and  _48
REMARK   20  A    between atoms: _47  and  _50
REMARK   21  A    between atoms: _50  and  _51
REMARK   22  A    between atoms: _53  and  _55
REMARK   23  A    between atoms: _55  and  _56
REMARK   24  A    between atoms: _59  and  _61
REMARK   25  A    between atoms: _61  and  _62
REMARK   26  A    between atoms: _61  and  _64
REMARK   27  A    between atoms: _64  and  _65
REMARK   28  A    between atoms: _65  and  _66
REMARK   29  A    between atoms: _66  and  _67
REMARK   30  A    between atoms: _67  and  _68
REMARK   31  A    between atoms: _72  and  _74
REMARK   32  A    between atoms: _74  and  _75
REMARK   33  A    between atoms: _74  and  _77
REMARK   34  A    between atoms: _77  and  _78
REMARK   35  A    between atoms: _81  and  _83
REMARK   36  A    between atoms: _83  and  _84
REMARK   37  A    between atoms: _83  and  _86
REMARK   38  A    between atoms: _86  and  _87
REMARK   39  A    between atoms: _87  and  _88
REMARK   40  A    between atoms: _93  and  _95
REMARK   41  A    between atoms: _95  and  _96
REMARK   42  A    between atoms: _95  and  _98
REMARK   43  A    between atoms: _98  and  _99
REMARK   44  A    between atoms: _102  and  _104
REMARK   45  A    between atoms: _104  and  _105
REMARK   46  A    between atoms: _104  and  _107
REMARK   47  A    between atoms: _107  and  _108
REMARK   48  A    between atoms: _111  and  _113
REMARK   49  A    between atoms: _113  and  _114
REMARK   50  A    between atoms: _116  and  _118
REMARK   51  A    between atoms: _118  and  _119
REMARK   52  A    between atoms: _118  and  _121
REMARK   53  A    between atoms: _123  and  _125
REMARK   54  A    between atoms: _125  and  _126
REMARK   55  A    between atoms: _128  and  _130
REMARK   56  A    between atoms: _130  and  _131
REMARK   57  A    between atoms: _130  and  _133
REMARK   58  A    between atoms: _133  and  _134
REMARK   59  A    between atoms: _134  and  _135
REMARK   60  A    between atoms: _135  and  _136
REMARK   61  A    between atoms: _145  and  _147
REMARK   62  A    between atoms: _147  and  _148
REMARK   63  A    between atoms: _150  and  _152
REMARK   64  A    between atoms: _152  and  _153
REMARK   65  A    between atoms: _155  and  _157
REMARK   66  A    between atoms: _157  and  _158
REMARK   67  A    between atoms: _157  and  _160
REMARK   68  A    between atoms: _160  and  _161
REMARK   69  A    between atoms: _171  and  _173
REMARK   70  A    between atoms: _173  and  _174
REMARK   71  A    between atoms: _173  and  _176
REMARK   72  A    between atoms: _176  and  _177
REMARK   73  A    between atoms: _179  and  _181
REMARK   74  A    between atoms: _181  and  _182
REMARK   75  A    between atoms: _181  and  _184
REMARK   76  A    between atoms: _184  and  _185
REMARK   77  A    between atoms: _190  and  _191
REMARK   78  A    between atoms: _193  and  _195
REMARK   79  A    between atoms: _195  and  _196
REMARK   80  A    between atoms: _195  and  _198
REMARK   81  A    between atoms: _198  and  _199
REMARK   82  A    between atoms: _204  and  _205
REMARK   83  A    between atoms: _207  and  _209
REMARK   84  A    between atoms: _209  and  _210
REMARK   85  A    between atoms: _209  and  _212
REMARK   86  A    between atoms: _212  and  _213
REMARK   87  A    between atoms: _218  and  _219
REMARK   88  A    between atoms: _221  and  _223
REMARK   89  A    between atoms: _223  and  _224
REMARK   90  A    between atoms: _223  and  _226
REMARK   91  A    between atoms: _226  and  _227
REMARK   92  A    between atoms: _230  and  _232
REMARK   93  A    between atoms: _232  and  _233
REMARK   94  A    between atoms: _232  and  _235
REMARK   95  A    between atoms: _235  and  _236
REMARK   96  A    between atoms: _236  and  _237
REMARK   97  A    between atoms: _237  and  _238
REMARK   98  A    between atoms: _238  and  _239
REMARK   99  A    between atoms: _243  and  _245
REMARK  100  A    between atoms: _245  and  _246
REMARK  101  A    between atoms: _248  and  _250
REMARK  102  A    between atoms: _250  and  _251
REMARK  103  A    between atoms: _254  and  _255
REMARK  104  A    between atoms: _260  and  _262
REMARK  105  A    between atoms: _262  and  _263
REMARK  106  A    between atoms: _265  and  _267
REMARK  107  A    between atoms: _267  and  _268
REMARK  108  A    between atoms: _267  and  _270
REMARK  109  A    between atoms: _270  and  _271
REMARK  110  A    between atoms: _276  and  _278
REMARK  111  A    between atoms: _278  and  _279
REMARK  112  A    between atoms: _278  and  _281
REMARK  113  A    between atoms: _281  and  _282
REMARK  114  A    between atoms: _282  and  _283
REMARK  115  A    between atoms: _286  and  _288
REMARK  116  A    between atoms: _288  and  _289
REMARK  117  A    between atoms: _288  and  _291
REMARK  118  A    between atoms: _291  and  _292
REMARK  119  A    between atoms: _292  and  _293
REMARK  120  A    between atoms: _297  and  _298
REMARK  121  A    between atoms: _303  and  _305
REMARK  122  A    between atoms: _305  and  _306
REMARK  123  A    between atoms: _305  and  _308
REMARK  124  A    between atoms: _311  and  _313
REMARK  125  A    between atoms: _313  and  _314
REMARK  126  A    between atoms: _313  and  _316
REMARK  127  A    between atoms: _316  and  _317
REMARK  128  A    between atoms: _317  and  _318
REMARK  129  A    between atoms: _320  and  _322
REMARK  130  A    between atoms: _322  and  _323
REMARK  131  A    between atoms: _322  and  _325
REMARK  132  A    between atoms: _325  and  _326
REMARK  133  A    between atoms: _328  and  _330
REMARK  134  A    between atoms: _330  and  _331
REMARK  135  A    between atoms: _333  and  _335
REMARK  136  A    between atoms: _335  and  _336
REMARK  137  A    between atoms: _335  and  _338
REMARK  138  A    between atoms: _338  and  _339
REMARK  139  A    between atoms: _339  and  _340
REMARK  140  A    between atoms: _340  and  _341
REMARK  141  A    between atoms: _341  and  _342
REMARK  142  A    between atoms: _346  and  _348
REMARK  143  A    between atoms: _348  and  _349
REMARK  144  A    between atoms: _348  and  _351
REMARK  145  A    between atoms: _351  and  _352
REMARK  146  A    between atoms: _355  and  _357
REMARK  147  A    between atoms: _357  and  _358
REMARK  148  A    between atoms: _357  and  _360
REMARK  149  A    between atoms: _363  and  _365
REMARK  150  A    between atoms: _365  and  _366
REMARK  151  A    between atoms: _365  and  _368
REMARK  152  A    between atoms: _368  and  _369
REMARK  153  A    between atoms: _375  and  _377
REMARK  154  A    between atoms: _377  and  _378
REMARK  155  A    between atoms: _377  and  _380
REMARK  156  A    between atoms: _380  and  _381
REMARK  157  A    between atoms: _386  and  _387
REMARK  158  A    between atoms: _389  and  _391
REMARK  159  A    between atoms: _391  and  _392
REMARK  160  A    between atoms: _391  and  _394
REMARK  161  A    between atoms: _394  and  _395
REMARK  162  A    between atoms: _398  and  _400
REMARK  163  A    between atoms: _400  and  _401
REMARK  164  A    between atoms: _400  and  _403
REMARK  165  A    between atoms: _403  and  _404
REMARK  166  A    between atoms: _407  and  _409
REMARK  167  A    between atoms: _409  and  _410
REMARK  168  A    between atoms: _409  and  _412
REMARK  169  A    between atoms: _414  and  _416
REMARK  170  A    between atoms: _416  and  _417
REMARK  171  A    between atoms: _416  and  _419
REMARK  172  A    between atoms: _419  and  _420
REMARK  173  A    between atoms: _423  and  _425
REMARK  174  A    between atoms: _425  and  _426
REMARK  175  A    between atoms: _425  and  _428
REMARK  176  A    between atoms: _428  and  _429
REMARK  177  A    between atoms: _432  and  _434
REMARK  178  A    between atoms: _434  and  _435
REMARK  179  A    between atoms: _437  and  _439
REMARK  180  A    between atoms: _439  and  _440
REMARK  181  A    between atoms: _439  and  _442
REMARK  182  A    between atoms: _442  and  _443
REMARK  183  A    between atoms: _443  and  _444
REMARK  184  A    between atoms: _447  and  _449
REMARK  185  A    between atoms: _449  and  _450
REMARK  186  A    between atoms: _449  and  _452
REMARK  187  A    between atoms: _452  and  _453
REMARK  188  A    between atoms: _455  and  _457
REMARK  189  A    between atoms: _457  and  _458
REMARK  190  A    between atoms: _457  and  _460
REMARK  191  A    between atoms: _460  and  _461
REMARK  192  A    between atoms: _461  and  _462
REMARK  193  A    between atoms: _462  and  _463
REMARK  194  A    between atoms: _472  and  _474
REMARK  195  A    between atoms: _474  and  _475
REMARK  196  A    between atoms: _474  and  _477
REMARK  197  A    between atoms: _477  and  _478
REMARK  198  A    between atoms: _481  and  _483
REMARK  199  A    between atoms: _483  and  _484
REMARK  200  A    between atoms: _483  and  _486
REMARK  201  A    between atoms: _486  and  _487
REMARK  202  A    between atoms: _490  and  _492
REMARK  203  A    between atoms: _492  and  _493
REMARK  204  A    between atoms: _492  and  _495
REMARK  205  A    between atoms: _495  and  _496
REMARK  206  A    between atoms: _496  and  _497
REMARK  207  A    between atoms: _497  and  _498
REMARK  208  A    between atoms: _507  and  _509
REMARK  209  A    between atoms: _509  and  _510
REMARK  210  A    between atoms: _509  and  _512
REMARK  211  A    between atoms: _515  and  _517
REMARK  212  A    between atoms: _517  and  _518
REMARK  213  A    between atoms: _517  and  _520
REMARK  214  A    between atoms: _520  and  _521
REMARK  215  A    between atoms: _524  and  _526
REMARK  216  A    between atoms: _526  and  _527
REMARK  217  A    between atoms: _526  and  _529
REMARK  218  A    between atoms: _529  and  _530
REMARK  219  A    between atoms: _530  and  _531
REMARK  220  A    between atoms: _531  and  _532
REMARK  221  A    between atoms: _532  and  _533
REMARK  222  A    between atoms: _537  and  _539
REMARK  223  A    between atoms: _539  and  _540
REMARK  224  A    between atoms: _539  and  _542
REMARK  225  A    between atoms: _542  and  _543
REMARK  226  A    between atoms: _543  and  _544
REMARK  227  A    between atoms: _546  and  _548
REMARK  228  A    between atoms: _548  and  _549
REMARK  229  A    between atoms: _548  and  _551
REMARK  230  A    between atoms: _554  and  _556
REMARK  231  A    between atoms: _556  and  _557
REMARK  232  A    between atoms: _556  and  _559
REMARK  233  A    between atoms: _559  and  _560
REMARK  234  A    between atoms: _570  and  _572
REMARK  235  A    between atoms: _572  and  _573
REMARK  236  A    between atoms: _572  and  _575
REMARK  237  A    between atoms: _575  and  _576
REMARK  238  A    between atoms: _576  and  _577
REMARK  239  A    between atoms: _577  and  _578
REMARK  240  A    between atoms: _578  and  _579
REMARK  241  A    between atoms: _583  and  _585
REMARK  242  A    between atoms: _585  and  _586
REMARK  243  A    between atoms: _585  and  _588
REMARK  244  A    between atoms: _588  and  _589
REMARK  245  A    between atoms: _592  and  _594
REMARK  246  A    between atoms: _594  and  _595
REMARK  247  A    between atoms: _594  and  _597
REMARK  248  A    between atoms: _597  and  _598
REMARK  249  A    between atoms: _603  and  _604
REMARK                            x       y       z     vdW  Elec       q    Type
REMARK                         _______ _______ _______ _____ _____    ______ ____
ROOT
ATOM      1  O   HOH     1      -0.290  -6.745  44.530  0.00  0.00    +0.000 OA
ENDROOT
TORSDOF 0
REMARK  Name = ../refined-set-2016/3p8z/3p8z_pocket.pdb
REMARK  249 active torsions:
REMARK  status: ('A' for Active; 'I' for Inactive)
REMARK    1  A    between atoms: _1  and  _3
REMARK    2  A    between atoms: _3  and  _4
REMARK    3  A    between atoms: _7  and  _9
REMARK    4  A    between atoms: _9  and  _10
REMARK    5  A    between atoms: _9  and  _12
REMARK    6  A    between atoms: _15  and  _17
REMARK    7  A    between atoms: _17  and  _18
REMARK    8  A    between atoms: _17  and  _20
REMARK    9  A    between atoms: _20  and  _21
REMARK   10  A    between atoms: _23  and  _25
REMARK   11  A    between atoms: _25  and  _26
REMARK   12  A    between atoms: _25  and  _28
REMARK   13  A    between atoms: _28  and  _29
REMARK   14  A    between atoms: _29  and  _30
REMARK   15  A    between atoms: _30  and  _31
REMARK   16  A    between atoms: _40  and  _42
REMARK   17  A    between atoms: _42  and  _43
REMARK   18  A    between atoms: _45  and  _47
REMARK   19  A    between atoms: _47  and  _48
REMARK   20  A    between atoms: _47  and  _50
REMARK   21  A    between atoms: _50  and  _51
REMARK   22  A    between atoms: _53  and  _55
REMARK   23  A    between atoms: _55  and  _56
REMARK   24  A    between atoms: _59  and  _61
REMARK   25  A    between atoms: _61  and  _62
REMARK   26  A    between atoms: _61  and  _64
REMARK   27  A    between atoms: _64  and  _65
REMARK   28  A    between atoms: _65  and  _66
REMARK   29  A    between atoms: _66  and  _67
REMARK   30  A    between atoms: _67  and  _68
REMARK   31  A    between atoms: _72  and  _74
REMARK   32  A    between atoms: _74  and  _75
REMARK   33  A    between atoms: _74  and  _77
REMARK   34  A    between atoms: _77  and  _78
REMARK   35  A    between atoms: _81  and  _83
REMARK   36  A    between atoms: _83  and  _84
REMARK   37  A    between atoms: _83  and  _86
REMARK   38  A    between atoms: _86  and  _87
REMARK   39  A    between atoms: _87  and  _88
REMARK   40  A    between atoms: _93  and  _95
REMARK   41  A    between atoms: _95  and  _96
REMARK   42  A    between atoms: _95  and  _98
REMARK   43  A    between atoms: _98  and  _99
REMARK   44  A    between atoms: _102  and  _104
REMARK   45  A    between atoms: _104  and  _105
REMARK   46  A    between atoms: _104  and  _107
REMARK   47  A    between atoms: _107  and  _108
REMARK   48  A    between atoms: _111  and  _113
REMARK   49  A    between atoms: _113  and  _114
REMARK   50  A    between atoms: _116  and  _118
REMARK   51  A    between atoms: _118  and  _119
REMARK   52  A    between atoms: _118  and  _121
REMARK   53  A    between atoms: _123  and  _125
REMARK   54  A    between atoms: _125  and  _126
REMARK   55  A    between atoms: _128  and  _130
REMARK   56  A    between atoms: _130  and  _131
REMARK   57  A    between atoms: _130  and  _133
REMARK   58  A    between atoms: _133  and  _134
REMARK   59  A    between atoms: _134  and  _135
REMARK   60  A    between atoms: _135  and  _136
REMARK   61  A    between atoms: _145  and  _147
REMARK   62  A    between atoms: _147  and  _148
REMARK   63  A    between atoms: _150  and  _152
REMARK   64  A    between atoms: _152  and  _153
REMARK   65  A    between atoms: _155  and  _157
REMARK   66  A    between atoms: _157  and  _158
REMARK   67  A    between atoms: _157  and  _160
REMARK   68  A    between atoms: _160  and  _161
REMARK   69  A    between atoms: _171  and  _173
REMARK   70  A    between atoms: _173  and  _174
REMARK   71  A    between atoms: _173  and  _176
REMARK   72  A    between atoms: _176  and  _177
REMARK   73  A    between atoms: _179  and  _181
REMARK   74  A    between atoms: _181  and  _182
REMARK   75  A    between atoms: _181  and  _184
REMARK   76  A    between atoms: _184  and  _185
REMARK   77  A    between atoms: _190  and  _191
REMARK   78  A    between atoms: _193  and  _195
REMARK   79  A    between atoms: _195  and  _196
REMARK   80  A    between atoms: _195  and  _198
REMARK   81  A    between atoms: _198  and  _199
REMARK   82  A    between atoms: _204  and  _205
REMARK   83  A    between atoms: _207  and  _209
REMARK   84  A    between atoms: _209  and  _210
REMARK   85  A    between atoms: _209  and  _212
REMARK   86  A    between atoms: _212  and  _213
REMARK   87  A    between atoms: _218  and  _219
REMARK   88  A    between atoms: _221  and  _223
REMARK   89  A    between atoms: _223  and  _224
REMARK   90  A    between atoms: _223  and  _226
REMARK   91  A    between atoms: _226  and  _227
REMARK   92  A    between atoms: _230  and  _232
REMARK   93  A    between atoms: _232  and  _233
REMARK   94  A    between atoms: _232  and  _235
REMARK   95  A    between atoms: _235  and  _236
REMARK   96  A    between atoms: _236  and  _237
REMARK   97  A    between atoms: _237  and  _238
REMARK   98  A    between atoms: _238  and  _239
REMARK   99  A    between atoms: _243  and  _245
REMARK  100  A    between atoms: _245  and  _246
REMARK  101  A    between atoms: _248  and  _250
REMARK  102  A    between atoms: _250  and  _251
REMARK  103  A    between atoms: _254  and  _255
REMARK  104  A    between atoms: _260  and  _262
REMARK  105  A    between atoms: _262  and  _263
REMARK  106  A    between atoms: _265  and  _267
REMARK  107  A    between atoms: _267  and  _268
REMARK  108  A    between atoms: _267  and  _270
REMARK  109  A    between atoms: _270  and  _271
REMARK  110  A    between atoms: _276  and  _278
REMARK  111  A    between atoms: _278  and  _279
REMARK  112  A    between atoms: _278  and  _281
REMARK  113  A    between atoms: _281  and  _282
REMARK  114  A    between atoms: _282  and  _283
REMARK  115  A    between atoms: _286  and  _288
REMARK  116  A    between atoms: _288  and  _289
REMARK  117  A    between atoms: _288  and  _291
REMARK  118  A    between atoms: _291  and  _292
REMARK  119  A    between atoms: _292  and  _293
REMARK  120  A    between atoms: _297  and  _298
REMARK  121  A    between atoms: _303  and  _305
REMARK  122  A    between atoms: _305  and  _306
REMARK  123  A    between atoms: _305  and  _308
REMARK  124  A    between atoms: _311  and  _313
REMARK  125  A    between atoms: _313  and  _314
REMARK  126  A    between atoms: _313  and  _316
REMARK  127  A    between atoms: _316  and  _317
REMARK  128  A    between atoms: _317  and  _318
REMARK  129  A    between atoms: _320  and  _322
REMARK  130  A    between atoms: _322  and  _323
REMARK  131  A    between atoms: _322  and  _325
REMARK  132  A    between atoms: _325  and  _326
REMARK  133  A    between atoms: _328  and  _330
REMARK  134  A    between atoms: _330  and  _331
REMARK  135  A    between atoms: _333  and  _335
REMARK  136  A    between atoms: _335  and  _336
REMARK  137  A    between atoms: _335  and  _338
REMARK  138  A    between atoms: _338  and  _339
REMARK  139  A    between atoms: _339  and  _340
REMARK  140  A    between atoms: _340  and  _341
REMARK  141  A    between atoms: _341  and  _342
REMARK  142  A    between atoms: _346  and  _348
REMARK  143  A    between atoms: _348  and  _349
REMARK  144  A    between atoms: _348  and  _351
REMARK  145  A    between atoms: _351  and  _352
REMARK  146  A    between atoms: _355  and  _357
REMARK  147  A    between atoms: _357  and  _358
REMARK  148  A    between atoms: _357  and  _360
REMARK  149  A    between atoms: _363  and  _365
REMARK  150  A    between atoms: _365  and  _366
REMARK  151  A    between atoms: _365  and  _368
REMARK  152  A    between atoms: _368  and  _369
REMARK  153  A    between atoms: _375  and  _377
REMARK  154  A    between atoms: _377  and  _378
REMARK  155  A    between atoms: _377  and  _380
REMARK  156  A    between atoms: _380  and  _381
REMARK  157  A    between atoms: _386  and  _387
REMARK  158  A    between atoms: _389  and  _391
REMARK  159  A    between atoms: _391  and  _392
REMARK  160  A    between atoms: _391  and  _394
REMARK  161  A    between atoms: _394  and  _395
REMARK  162  A    between atoms: _398  and  _400
REMARK  163  A    between atoms: _400  and  _401
REMARK  164  A    between atoms: _400  and  _403
REMARK  165  A    between atoms: _403  and  _404
REMARK  166  A    between atoms: _407  and  _409
REMARK  167  A    between atoms: _409  and  _410
REMARK  168  A    between atoms: _409  and  _412
REMARK  169  A    between atoms: _414  and  _416
REMARK  170  A    between atoms: _416  and  _417
REMARK  171  A    between atoms: _416  and  _419
REMARK  172  A    between atoms: _419  and  _420
REMARK  173  A    between atoms: _423  and  _425
REMARK  174  A    between atoms: _425  and  _426
REMARK  175  A    between atoms: _425  and  _428
REMARK  176  A    between atoms: _428  and  _429
REMARK  177  A    between atoms: _432  and  _434
REMARK  178  A    between atoms: _434  and  _435
REMARK  179  A    between atoms: _437  and  _439
REMARK  180  A    between atoms: _439  and  _440
REMARK  181  A    between atoms: _439  and  _442
REMARK  182  A    between atoms: _442  and  _443
REMARK  183  A    between atoms: _443  and  _444
REMARK  184  A    between atoms: _447  and  _449
REMARK  185  A    between atoms: _449  and  _450
REMARK  186  A    between atoms: _449  and  _452
REMARK  187  A    between atoms: _452  and  _453
REMARK  188  A    between atoms: _455  and  _457
REMARK  189  A    between atoms: _457  and  _458
REMARK  190  A    between atoms: _457  and  _460
REMARK  191  A    between atoms: _460  and  _461
REMARK  192  A    between atoms: _461  and  _462
REMARK  193  A    between atoms: _462  and  _463
REMARK  194  A    between atoms: _472  and  _474
REMARK  195  A    between atoms: _474  and  _475
REMARK  196  A    between atoms: _474  and  _477
REMARK  197  A    between atoms: _477  and  _478
REMARK  198  A    between atoms: _481  and  _483
REMARK  199  A    between atoms: _483  and  _484
REMARK  200  A    between atoms: _483  and  _486
REMARK  201  A    between atoms: _486  and  _487
REMARK  202  A    between atoms: _490  and  _492
REMARK  203  A    between atoms: _492  and  _493
REMARK  204  A    between atoms: _492  and  _495
REMARK  205  A    between atoms: _495  and  _496
REMARK  206  A    between atoms: _496  and  _497
REMARK  207  A    between atoms: _497  and  _498
REMARK  208  A    between atoms: _507  and  _509
REMARK  209  A    between atoms: _509  and  _510
REMARK  210  A    between atoms: _509  and  _512
REMARK  211  A    between atoms: _515  and  _517
REMARK  212  A    between atoms: _517  and  _518
REMARK  213  A    between atoms: _517  and  _520
REMARK  214  A    between atoms: _520  and  _521
REMARK  215  A    between atoms: _524  and  _526
REMARK  216  A    between atoms: _526  and  _527
REMARK  217  A    between atoms: _526  and  _529
REMARK  218  A    between atoms: _529  and  _530
REMARK  219  A    between atoms: _530  and  _531
REMARK  220  A    between atoms: _531  and  _532
REMARK  221  A    between atoms: _532  and  _533
REMARK  222  A    between atoms: _537  and  _539
REMARK  223  A    between atoms: _539  and  _540
REMARK  224  A    between atoms: _539  and  _542
REMARK  225  A    between atoms: _542  and  _543
REMARK  226  A    between atoms: _543  and  _544
REMARK  227  A    between atoms: _546  and  _548
REMARK  228  A    between atoms: _548  and  _549
REMARK  229  A    between atoms: _548  and  _551
REMARK  230  A    between atoms: _554  and  _556
REMARK  231  A    between atoms: _556  and  _557
REMARK  232  A    between atoms: _556  and  _559
REMARK  233  A    between atoms: _559  and  _560
REMARK  234  A    between atoms: _570  and  _572
REMARK  235  A    between atoms: _572  and  _573
REMARK  236  A    between atoms: _572  and  _575
REMARK  237  A    between atoms: _575  and  _576
REMARK  238  A    between atoms: _576  and  _577
REMARK  239  A    between atoms: _577  and  _578
REMARK  240  A    between atoms: _578  and  _579
REMARK  241  A    between atoms: _583  and  _585
REMARK  242  A    between atoms: _585  and  _586
REMARK  243  A    between atoms: _585  and  _588
REMARK  244  A    between atoms: _588  and  _589
REMARK  245  A    between atoms: _592  and  _594
REMARK  246  A    between atoms: _594  and  _595
REMARK  247  A    between atoms: _594  and  _597
REMARK  248  A    between atoms: _597  and  _598
REMARK  249  A    between atoms: _603  and  _604
REMARK                            x       y       z     vdW  Elec       q    Type
REMARK                         _______ _______ _______ _____ _____    ______ ____
ROOT
ATOM      1  O   HOH     1       1.658  -5.728  36.298  0.00  0.00    +0.000 OA
ENDROOT
TORSDOF 0
REMARK  Name = ../refined-set-2016/3p8z/3p8z_pocket.pdb
REMARK  249 active torsions:
REMARK  status: ('A' for Active; 'I' for Inactive)
REMARK    1  A    between atoms: _1  and  _3
REMARK    2  A    between atoms: _3  and  _4
REMARK    3  A    between atoms: _7  and  _9
REMARK    4  A    between atoms: _9  and  _10
REMARK    5  A    between atoms: _9  and  _12
REMARK    6  A    between atoms: _15  and  _17
REMARK    7  A    between atoms: _17  and  _18
REMARK    8  A    between atoms: _17  and  _20
REMARK    9  A    between atoms: _20  and  _21
REMARK   10  A    between atoms: _23  and  _25
REMARK   11  A    between atoms: _25  and  _26
REMARK   12  A    between atoms: _25  and  _28
REMARK   13  A    between atoms: _28  and  _29
REMARK   14  A    between atoms: _29  and  _30
REMARK   15  A    between atoms: _30  and  _31
REMARK   16  A    between atoms: _40  and  _42
REMARK   17  A    between atoms: _42  and  _43
REMARK   18  A    between atoms: _45  and  _47
REMARK   19  A    between atoms: _47  and  _48
REMARK   20  A    between atoms: _47  and  _50
REMARK   21  A    between atoms: _50  and  _51
REMARK   22  A    between atoms: _53  and  _55
REMARK   23  A    between atoms: _55  and  _56
REMARK   24  A    between atoms: _59  and  _61
REMARK   25  A    between atoms: _61  and  _62
REMARK   26  A    between atoms: _61  and  _64
REMARK   27  A    between atoms: _64  and  _65
REMARK   28  A    between atoms: _65  and  _66
REMARK   29  A    between atoms: _66  and  _67
REMARK   30  A    between atoms: _67  and  _68
REMARK   31  A    between atoms: _72  and  _74
REMARK   32  A    between atoms: _74  and  _75
REMARK   33  A    between atoms: _74  and  _77
REMARK   34  A    between atoms: _77  and  _78
REMARK   35  A    between atoms: _81  and  _83
REMARK   36  A    between atoms: _83  and  _84
REMARK   37  A    between atoms: _83  and  _86
REMARK   38  A    between atoms: _86  and  _87
REMARK   39  A    between atoms: _87  and  _88
REMARK   40  A    between atoms: _93  and  _95
REMARK   41  A    between atoms: _95  and  _96
REMARK   42  A    between atoms: _95  and  _98
REMARK   43  A    between atoms: _98  and  _99
REMARK   44  A    between atoms: _102  and  _104
REMARK   45  A    between atoms: _104  and  _105
REMARK   46  A    between atoms: _104  and  _107
REMARK   47  A    between atoms: _107  and  _108
REMARK   48  A    between atoms: _111  and  _113
REMARK   49  A    between atoms: _113  and  _114
REMARK   50  A    between atoms: _116  and  _118
REMARK   51  A    between atoms: _118  and  _119
REMARK   52  A    between atoms: _118  and  _121
REMARK   53  A    between atoms: _123  and  _125
REMARK   54  A    between atoms: _125  and  _126
REMARK   55  A    between atoms: _128  and  _130
REMARK   56  A    between atoms: _130  and  _131
REMARK   57  A    between atoms: _130  and  _133
REMARK   58  A    between atoms: _133  and  _134
REMARK   59  A    between atoms: _134  and  _135
REMARK   60  A    between atoms: _135  and  _136
REMARK   61  A    between atoms: _145  and  _147
REMARK   62  A    between atoms: _147  and  _148
REMARK   63  A    between atoms: _150  and  _152
REMARK   64  A    between atoms: _152  and  _153
REMARK   65  A    between atoms: _155  and  _157
REMARK   66  A    between atoms: _157  and  _158
REMARK   67  A    between atoms: _157  and  _160
REMARK   68  A    between atoms: _160  and  _161
REMARK   69  A    between atoms: _171  and  _173
REMARK   70  A    between atoms: _173  and  _174
REMARK   71  A    between atoms: _173  and  _176
REMARK   72  A    between atoms: _176  and  _177
REMARK   73  A    between atoms: _179  and  _181
REMARK   74  A    between atoms: _181  and  _182
REMARK   75  A    between atoms: _181  and  _184
REMARK   76  A    between atoms: _184  and  _185
REMARK   77  A    between atoms: _190  and  _191
REMARK   78  A    between atoms: _193  and  _195
REMARK   79  A    between atoms: _195  and  _196
REMARK   80  A    between atoms: _195  and  _198
REMARK   81  A    between atoms: _198  and  _199
REMARK   82  A    between atoms: _204  and  _205
REMARK   83  A    between atoms: _207  and  _209
REMARK   84  A    between atoms: _209  and  _210
REMARK   85  A    between atoms: _209  and  _212
REMARK   86  A    between atoms: _212  and  _213
REMARK   87  A    between atoms: _218  and  _219
REMARK   88  A    between atoms: _221  and  _223
REMARK   89  A    between atoms: _223  and  _224
REMARK   90  A    between atoms: _223  and  _226
REMARK   91  A    between atoms: _226  and  _227
REMARK   92  A    between atoms: _230  and  _232
REMARK   93  A    between atoms: _232  and  _233
REMARK   94  A    between atoms: _232  and  _235
REMARK   95  A    between atoms: _235  and  _236
REMARK   96  A    between atoms: _236  and  _237
REMARK   97  A    between atoms: _237  and  _238
REMARK   98  A    between atoms: _238  and  _239
REMARK   99  A    between atoms: _243  and  _245
REMARK  100  A    between atoms: _245  and  _246
REMARK  101  A    between atoms: _248  and  _250
REMARK  102  A    between atoms: _250  and  _251
REMARK  103  A    between atoms: _254  and  _255
REMARK  104  A    between atoms: _260  and  _262
REMARK  105  A    between atoms: _262  and  _263
REMARK  106  A    between atoms: _265  and  _267
REMARK  107  A    between atoms: _267  and  _268
REMARK  108  A    between atoms: _267  and  _270
REMARK  109  A    between atoms: _270  and  _271
REMARK  110  A    between atoms: _276  and  _278
REMARK  111  A    between atoms: _278  and  _279
REMARK  112  A    between atoms: _278  and  _281
REMARK  113  A    between atoms: _281  and  _282
REMARK  114  A    between atoms: _282  and  _283
REMARK  115  A    between atoms: _286  and  _288
REMARK  116  A    between atoms: _288  and  _289
REMARK  117  A    between atoms: _288  and  _291
REMARK  118  A    between atoms: _291  and  _292
REMARK  119  A    between atoms: _292  and  _293
REMARK  120  A    between atoms: _297  and  _298
REMARK  121  A    between atoms: _303  and  _305
REMARK  122  A    between atoms: _305  and  _306
REMARK  123  A    between atoms: _305  and  _308
REMARK  124  A    between atoms: _311  and  _313
REMARK  125  A    between atoms: _313  and  _314
REMARK  126  A    between atoms: _313  and  _316
REMARK  127  A    between atoms: _316  and  _317
REMARK  128  A    between atoms: _317  and  _318
REMARK  129  A    between atoms: _320  and  _322
REMARK  130  A    between atoms: _322  and  _323
REMARK  131  A    between atoms: _322  and  _325
REMARK  132  A    between atoms: _325  and  _326
REMARK  133  A    between atoms: _328  and  _330
REMARK  134  A    between atoms: _330  and  _331
REMARK  135  A    between atoms: _333  and  _335
REMARK  136  A    between atoms: _335  and  _336
REMARK  137  A    between atoms: _335  and  _338
REMARK  138  A    between atoms: _338  and  _339
REMARK  139  A    between atoms: _339  and  _340
REMARK  140  A    between atoms: _340  and  _341
REMARK  141  A    between atoms: _341  and  _342
REMARK  142  A    between atoms: _346  and  _348
REMARK  143  A    between atoms: _348  and  _349
REMARK  144  A    between atoms: _348  and  _351
REMARK  145  A    between atoms: _351  and  _352
REMARK  146  A    between atoms: _355  and  _357
REMARK  147  A    between atoms: _357  and  _358
REMARK  148  A    between atoms: _357  and  _360
REMARK  149  A    between atoms: _363  and  _365
REMARK  150  A    between atoms: _365  and  _366
REMARK  151  A    between atoms: _365  and  _368
REMARK  152  A    between atoms: _368  and  _369
REMARK  153  A    between atoms: _375  and  _377
REMARK  154  A    between atoms: _377  and  _378
REMARK  155  A    between atoms: _377  and  _380
REMARK  156  A    between atoms: _380  and  _381
REMARK  157  A    between atoms: _386  and  _387
REMARK  158  A    between atoms: _389  and  _391
REMARK  159  A    between atoms: _391  and  _392
REMARK  160  A    between atoms: _391  and  _394
REMARK  161  A    between atoms: _394  and  _395
REMARK  162  A    between atoms: _398  and  _400
REMARK  163  A    between atoms: _400  and  _401
REMARK  164  A    between atoms: _400  and  _403
REMARK  165  A    between atoms: _403  and  _404
REMARK  166  A    between atoms: _407  and  _409
REMARK  167  A    between atoms: _409  and  _410
REMARK  168  A    between atoms: _409  and  _412
REMARK  169  A    between atoms: _414  and  _416
REMARK  170  A    between atoms: _416  and  _417
REMARK  171  A    between atoms: _416  and  _419
REMARK  172  A    between atoms: _419  and  _420
REMARK  173  A    between atoms: _423  and  _425
REMARK  174  A    between atoms: _425  and  _426
REMARK  175  A    between atoms: _425  and  _428
REMARK  176  A    between atoms: _428  and  _429
REMARK  177  A    between atoms: _432  and  _434
REMARK  178  A    between atoms: _434  and  _435
REMARK  179  A    between atoms: _437  and  _439
REMARK  180  A    between atoms: _439  and  _440
REMARK  181  A    between atoms: _439  and  _442
REMARK  182  A    between atoms: _442  and  _443
REMARK  183  A    between atoms: _443  and  _444
REMARK  184  A    between atoms: _447  and  _449
REMARK  185  A    between atoms: _449  and  _450
REMARK  186  A    between atoms: _449  and  _452
REMARK  187  A    between atoms: _452  and  _453
REMARK  188  A    between atoms: _455  and  _457
REMARK  189  A    between atoms: _457  and  _458
REMARK  190  A    between atoms: _457  and  _460
REMARK  191  A    between atoms: _460  and  _461
REMARK  192  A    between atoms: _461  and  _462
REMARK  193  A    between atoms: _462  and  _463
REMARK  194  A    between atoms: _472  and  _474
REMARK  195  A    between atoms: _474  and  _475
REMARK  196  A    between atoms: _474  and  _477
REMARK  197  A    between atoms: _477  and  _478
REMARK  198  A    between atoms: _481  and  _483
REMARK  199  A    between atoms: _483  and  _484
REMARK  200  A    between atoms: _483  and  _486
REMARK  201  A    between atoms: _486  and  _487
REMARK  202  A    between atoms: _490  and  _492
REMARK  203  A    between atoms: _492  and  _493
REMARK  204  A    between atoms: _492  and  _495
REMARK  205  A    between atoms: _495  and  _496
REMARK  206  A    between atoms: _496  and  _497
REMARK  207  A    between atoms: _497  and  _498
REMARK  208  A    between atoms: _507  and  _509
REMARK  209  A    between atoms: _509  and  _510
REMARK  210  A    between atoms: _509  and  _512
REMARK  211  A    between atoms: _515  and  _517
REMARK  212  A    between atoms: _517  and  _518
REMARK  213  A    between atoms: _517  and  _520
REMARK  214  A    between atoms: _520  and  _521
REMARK  215  A    between atoms: _524  and  _526
REMARK  216  A    between atoms: _526  and  _527
REMARK  217  A    between atoms: _526  and  _529
REMARK  218  A    between atoms: _529  and  _530
REMARK  219  A    between atoms: _530  and  _531
REMARK  220  A    between atoms: _531  and  _532
REMARK  221  A    between atoms: _532  and  _533
REMARK  222  A    between atoms: _537  and  _539
REMARK  223  A    between atoms: _539  and  _540
REMARK  224  A    between atoms: _539  and  _542
REMARK  225  A    between atoms: _542  and  _543
REMARK  226  A    between atoms: _543  and  _544
REMARK  227  A    between atoms: _546  and  _548
REMARK  228  A    between atoms: _548  and  _549
REMARK  229  A    between atoms: _548  and  _551
REMARK  230  A    between atoms: _554  and  _556
REMARK  231  A    between atoms: _556  and  _557
REMARK  232  A    between atoms: _556  and  _559
REMARK  233  A    between atoms: _559  and  _560
REMARK  234  A    between atoms: _570  and  _572
REMARK  235  A    between atoms: _572  and  _573
REMARK  236  A    between atoms: _572  and  _575
REMARK  237  A    between atoms: _575  and  _576
REMARK  238  A    between atoms: _576  and  _577
REMARK  239  A    between atoms: _577  and  _578
REMARK  240  A    between atoms: _578  and  _579
REMARK  241  A    between atoms: _583  and  _585
REMARK  242  A    between atoms: _585  and  _586
REMARK  243  A    between atoms: _585  and  _588
REMARK  244  A    between atoms: _588  and  _589
REMARK  245  A    between atoms: _592  and  _594
REMARK  246  A    between atoms: _594  and  _595
REMARK  247  A    between atoms: _594  and  _597
REMARK  248  A    between atoms: _597  and  _598
REMARK  249  A    between atoms: _603  and  _604
REMARK                            x       y       z     vdW  Elec       q    Type
REMARK                         _______ _______ _______ _____ _____    ______ ____
ROOT
ATOM      1  O   HOH     1       7.238   9.242  44.095  0.00  0.00    +0.000 OA
ENDROOT
TORSDOF 0
REMARK  Name = ../refined-set-2016/3p8z/3p8z_pocket.pdb
REMARK  249 active torsions:
REMARK  status: ('A' for Active; 'I' for Inactive)
REMARK    1  A    between atoms: _1  and  _3
REMARK    2  A    between atoms: _3  and  _4
REMARK    3  A    between atoms: _7  and  _9
REMARK    4  A    between atoms: _9  and  _10
REMARK    5  A    between atoms: _9  and  _12
REMARK    6  A    between atoms: _15  and  _17
REMARK    7  A    between atoms: _17  and  _18
REMARK    8  A    between atoms: _17  and  _20
REMARK    9  A    between atoms: _20  and  _21
REMARK   10  A    between atoms: _23  and  _25
REMARK   11  A    between atoms: _25  and  _26
REMARK   12  A    between atoms: _25  and  _28
REMARK   13  A    between atoms: _28  and  _29
REMARK   14  A    between atoms: _29  and  _30
REMARK   15  A    between atoms: _30  and  _31
REMARK   16  A    between atoms: _40  and  _42
REMARK   17  A    between atoms: _42  and  _43
REMARK   18  A    between atoms: _45  and  _47
REMARK   19  A    between atoms: _47  and  _48
REMARK   20  A    between atoms: _47  and  _50
REMARK   21  A    between atoms: _50  and  _51
REMARK   22  A    between atoms: _53  and  _55
REMARK   23  A    between atoms: _55  and  _56
REMARK   24  A    between atoms: _59  and  _61
REMARK   25  A    between atoms: _61  and  _62
REMARK   26  A    between atoms: _61  and  _64
REMARK   27  A    between atoms: _64  and  _65
REMARK   28  A    between atoms: _65  and  _66
REMARK   29  A    between atoms: _66  and  _67
REMARK   30  A    between atoms: _67  and  _68
REMARK   31  A    between atoms: _72  and  _74
REMARK   32  A    between atoms: _74  and  _75
REMARK   33  A    between atoms: _74  and  _77
REMARK   34  A    between atoms: _77  and  _78
REMARK   35  A    between atoms: _81  and  _83
REMARK   36  A    between atoms: _83  and  _84
REMARK   37  A    between atoms: _83  and  _86
REMARK   38  A    between atoms: _86  and  _87
REMARK   39  A    between atoms: _87  and  _88
REMARK   40  A    between atoms: _93  and  _95
REMARK   41  A    between atoms: _95  and  _96
REMARK   42  A    between atoms: _95  and  _98
REMARK   43  A    between atoms: _98  and  _99
REMARK   44  A    between atoms: _102  and  _104
REMARK   45  A    between atoms: _104  and  _105
REMARK   46  A    between atoms: _104  and  _107
REMARK   47  A    between atoms: _107  and  _108
REMARK   48  A    between atoms: _111  and  _113
REMARK   49  A    between atoms: _113  and  _114
REMARK   50  A    between atoms: _116  and  _118
REMARK   51  A    between atoms: _118  and  _119
REMARK   52  A    between atoms: _118  and  _121
REMARK   53  A    between atoms: _123  and  _125
REMARK   54  A    between atoms: _125  and  _126
REMARK   55  A    between atoms: _128  and  _130
REMARK   56  A    between atoms: _130  and  _131
REMARK   57  A    between atoms: _130  and  _133
REMARK   58  A    between atoms: _133  and  _134
REMARK   59  A    between atoms: _134  and  _135
REMARK   60  A    between atoms: _135  and  _136
REMARK   61  A    between atoms: _145  and  _147
REMARK   62  A    between atoms: _147  and  _148
REMARK   63  A    between atoms: _150  and  _152
REMARK   64  A    between atoms: _152  and  _153
REMARK   65  A    between atoms: _155  and  _157
REMARK   66  A    between atoms: _157  and  _158
REMARK   67  A    between atoms: _157  and  _160
REMARK   68  A    between atoms: _160  and  _161
REMARK   69  A    between atoms: _171  and  _173
REMARK   70  A    between atoms: _173  and  _174
REMARK   71  A    between atoms: _173  and  _176
REMARK   72  A    between atoms: _176  and  _177
REMARK   73  A    between atoms: _179  and  _181
REMARK   74  A    between atoms: _181  and  _182
REMARK   75  A    between atoms: _181  and  _184
REMARK   76  A    between atoms: _184  and  _185
REMARK   77  A    between atoms: _190  and  _191
REMARK   78  A    between atoms: _193  and  _195
REMARK   79  A    between atoms: _195  and  _196
REMARK   80  A    between atoms: _195  and  _198
REMARK   81  A    between atoms: _198  and  _199
REMARK   82  A    between atoms: _204  and  _205
REMARK   83  A    between atoms: _207  and  _209
REMARK   84  A    between atoms: _209  and  _210
REMARK   85  A    between atoms: _209  and  _212
REMARK   86  A    between atoms: _212  and  _213
REMARK   87  A    between atoms: _218  and  _219
REMARK   88  A    between atoms: _221  and  _223
REMARK   89  A    between atoms: _223  and  _224
REMARK   90  A    between atoms: _223  and  _226
REMARK   91  A    between atoms: _226  and  _227
REMARK   92  A    between atoms: _230  and  _232
REMARK   93  A    between atoms: _232  and  _233
REMARK   94  A    between atoms: _232  and  _235
REMARK   95  A    between atoms: _235  and  _236
REMARK   96  A    between atoms: _236  and  _237
REMARK   97  A    between atoms: _237  and  _238
REMARK   98  A    between atoms: _238  and  _239
REMARK   99  A    between atoms: _243  and  _245
REMARK  100  A    between atoms: _245  and  _246
REMARK  101  A    between atoms: _248  and  _250
REMARK  102  A    between atoms: _250  and  _251
REMARK  103  A    between atoms: _254  and  _255
REMARK  104  A    between atoms: _260  and  _262
REMARK  105  A    between atoms: _262  and  _263
REMARK  106  A    between atoms: _265  and  _267
REMARK  107  A    between atoms: _267  and  _268
REMARK  108  A    between atoms: _267  and  _270
REMARK  109  A    between atoms: _270  and  _271
REMARK  110  A    between atoms: _276  and  _278
REMARK  111  A    between atoms: _278  and  _279
REMARK  112  A    between atoms: _278  and  _281
REMARK  113  A    between atoms: _281  and  _282
REMARK  114  A    between atoms: _282  and  _283
REMARK  115  A    between atoms: _286  and  _288
REMARK  116  A    between atoms: _288  and  _289
REMARK  117  A    between atoms: _288  and  _291
REMARK  118  A    between atoms: _291  and  _292
REMARK  119  A    between atoms: _292  and  _293
REMARK  120  A    between atoms: _297  and  _298
REMARK  121  A    between atoms: _303  and  _305
REMARK  122  A    between atoms: _305  and  _306
REMARK  123  A    between atoms: _305  and  _308
REMARK  124  A    between atoms: _311  and  _313
REMARK  125  A    between atoms: _313  and  _314
REMARK  126  A    between atoms: _313  and  _316
REMARK  127  A    between atoms: _316  and  _317
REMARK  128  A    between atoms: _317  and  _318
REMARK  129  A    between atoms: _320  and  _322
REMARK  130  A    between atoms: _322  and  _323
REMARK  131  A    between atoms: _322  and  _325
REMARK  132  A    between atoms: _325  and  _326
REMARK  133  A    between atoms: _328  and  _330
REMARK  134  A    between atoms: _330  and  _331
REMARK  135  A    between atoms: _333  and  _335
REMARK  136  A    between atoms: _335  and  _336
REMARK  137  A    between atoms: _335  and  _338
REMARK  138  A    between atoms: _338  and  _339
REMARK  139  A    between atoms: _339  and  _340
REMARK  140  A    between atoms: _340  and  _341
REMARK  141  A    between atoms: _341  and  _342
REMARK  142  A    between atoms: _346  and  _348
REMARK  143  A    between atoms: _348  and  _349
REMARK  144  A    between atoms: _348  and  _351
REMARK  145  A    between atoms: _351  and  _352
REMARK  146  A    between atoms: _355  and  _357
REMARK  147  A    between atoms: _357  and  _358
REMARK  148  A    between atoms: _357  and  _360
REMARK  149  A    between atoms: _363  and  _365
REMARK  150  A    between atoms: _365  and  _366
REMARK  151  A    between atoms: _365  and  _368
REMARK  152  A    between atoms: _368  and  _369
REMARK  153  A    between atoms: _375  and  _377
REMARK  154  A    between atoms: _377  and  _378
REMARK  155  A    between atoms: _377  and  _380
REMARK  156  A    between atoms: _380  and  _381
REMARK  157  A    between atoms: _386  and  _387
REMARK  158  A    between atoms: _389  and  _391
REMARK  159  A    between atoms: _391  and  _392
REMARK  160  A    between atoms: _391  and  _394
REMARK  161  A    between atoms: _394  and  _395
REMARK  162  A    between atoms: _398  and  _400
REMARK  163  A    between atoms: _400  and  _401
REMARK  164  A    between atoms: _400  and  _403
REMARK  165  A    between atoms: _403  and  _404
REMARK  166  A    between atoms: _407  and  _409
REMARK  167  A    between atoms: _409  and  _410
REMARK  168  A    between atoms: _409  and  _412
REMARK  169  A    between atoms: _414  and  _416
REMARK  170  A    between atoms: _416  and  _417
REMARK  171  A    between atoms: _416  and  _419
REMARK  172  A    between atoms: _419  and  _420
REMARK  173  A    between atoms: _423  and  _425
REMARK  174  A    between atoms: _425  and  _426
REMARK  175  A    between atoms: _425  and  _428
REMARK  176  A    between atoms: _428  and  _429
REMARK  177  A    between atoms: _432  and  _434
REMARK  178  A    between atoms: _434  and  _435
REMARK  179  A    between atoms: _437  and  _439
REMARK  180  A    between atoms: _439  and  _440
REMARK  181  A    between atoms: _439  and  _442
REMARK  182  A    between atoms: _442  and  _443
REMARK  183  A    between atoms: _443  and  _444
REMARK  184  A    between atoms: _447  and  _449
REMARK  185  A    between atoms: _449  and  _450
REMARK  186  A    between atoms: _449  and  _452
REMARK  187  A    between atoms: _452  and  _453
REMARK  188  A    between atoms: _455  and  _457
REMARK  189  A    between atoms: _457  and  _458
REMARK  190  A    between atoms: _457  and  _460
REMARK  191  A    between atoms: _460  and  _461
REMARK  192  A    between atoms: _461  and  _462
REMARK  193  A    between atoms: _462  and  _463
REMARK  194  A    between atoms: _472  and  _474
REMARK  195  A    between atoms: _474  and  _475
REMARK  196  A    between atoms: _474  and  _477
REMARK  197  A    between atoms: _477  and  _478
REMARK  198  A    between atoms: _481  and  _483
REMARK  199  A    between atoms: _483  and  _484
REMARK  200  A    between atoms: _483  and  _486
REMARK  201  A    between atoms: _486  and  _487
REMARK  202  A    between atoms: _490  and  _492
REMARK  203  A    between atoms: _492  and  _493
REMARK  204  A    between atoms: _492  and  _495
REMARK  205  A    between atoms: _495  and  _496
REMARK  206  A    between atoms: _496  and  _497
REMARK  207  A    between atoms: _497  and  _498
REMARK  208  A    between atoms: _507  and  _509
REMARK  209  A    between atoms: _509  and  _510
REMARK  210  A    between atoms: _509  and  _512
REMARK  211  A    between atoms: _515  and  _517
REMARK  212  A    between atoms: _517  and  _518
REMARK  213  A    between atoms: _517  and  _520
REMARK  214  A    between atoms: _520  and  _521
REMARK  215  A    between atoms: _524  and  _526
REMARK  216  A    between atoms: _526  and  _527
REMARK  217  A    between atoms: _526  and  _529
REMARK  218  A    between atoms: _529  and  _530
REMARK  219  A    between atoms: _530  and  _531
REMARK  220  A    between atoms: _531  and  _532
REMARK  221  A    between atoms: _532  and  _533
REMARK  222  A    between atoms: _537  and  _539
REMARK  223  A    between atoms: _539  and  _540
REMARK  224  A    between atoms: _539  and  _542
REMARK  225  A    between atoms: _542  and  _543
REMARK  226  A    between atoms: _543  and  _544
REMARK  227  A    between atoms: _546  and  _548
REMARK  228  A    between atoms: _548  and  _549
REMARK  229  A    between atoms: _548  and  _551
REMARK  230  A    between atoms: _554  and  _556
REMARK  231  A    between atoms: _556  and  _557
REMARK  232  A    between atoms: _556  and  _559
REMARK  233  A    between atoms: _559  and  _560
REMARK  234  A    between atoms: _570  and  _572
REMARK  235  A    between atoms: _572  and  _573
REMARK  236  A    between atoms: _572  and  _575
REMARK  237  A    between atoms: _575  and  _576
REMARK  238  A    between atoms: _576  and  _577
REMARK  239  A    between atoms: _577  and  _578
REMARK  240  A    between atoms: _578  and  _579
REMARK  241  A    between atoms: _583  and  _585
REMARK  242  A    between atoms: _585  and  _586
REMARK  243  A    between atoms: _585  and  _588
REMARK  244  A    between atoms: _588  and  _589
REMARK  245  A    between atoms: _592  and  _594
REMARK  246  A    between atoms: _594  and  _595
REMARK  247  A    between atoms: _594  and  _597
REMARK  248  A    between atoms: _597  and  _598
REMARK  249  A    between atoms: _603  and  _604
REMARK                            x       y       z     vdW  Elec       q    Type
REMARK                         _______ _______ _______ _____ _____    ______ ____
ROOT
ATOM      1  O   HOH     1       2.157   1.775  43.688  0.00  0.00    +0.000 OA
ENDROOT
TORSDOF 0
REMARK  Name = ../refined-set-2016/3p8z/3p8z_pocket.pdb
REMARK  249 active torsions:
REMARK  status: ('A' for Active; 'I' for Inactive)
REMARK    1  A    between atoms: _1  and  _3
REMARK    2  A    between atoms: _3  and  _4
REMARK    3  A    between atoms: _7  and  _9
REMARK    4  A    between atoms: _9  and  _10
REMARK    5  A    between atoms: _9  and  _12
REMARK    6  A    between atoms: _15  and  _17
REMARK    7  A    between atoms: _17  and  _18
REMARK    8  A    between atoms: _17  and  _20
REMARK    9  A    between atoms: _20  and  _21
REMARK   10  A    between atoms: _23  and  _25
REMARK   11  A    between atoms: _25  and  _26
REMARK   12  A    between atoms: _25  and  _28
REMARK   13  A    between atoms: _28  and  _29
REMARK   14  A    between atoms: _29  and  _30
REMARK   15  A    between atoms: _30  and  _31
REMARK   16  A    between atoms: _40  and  _42
REMARK   17  A    between atoms: _42  and  _43
REMARK   18  A    between atoms: _45  and  _47
REMARK   19  A    between atoms: _47  and  _48
REMARK   20  A    between atoms: _47  and  _50
REMARK   21  A    between atoms: _50  and  _51
REMARK   22  A    between atoms: _53  and  _55
REMARK   23  A    between atoms: _55  and  _56
REMARK   24  A    between atoms: _59  and  _61
REMARK   25  A    between atoms: _61  and  _62
REMARK   26  A    between atoms: _61  and  _64
REMARK   27  A    between atoms: _64  and  _65
REMARK   28  A    between atoms: _65  and  _66
REMARK   29  A    between atoms: _66  and  _67
REMARK   30  A    between atoms: _67  and  _68
REMARK   31  A    between atoms: _72  and  _74
REMARK   32  A    between atoms: _74  and  _75
REMARK   33  A    between atoms: _74  and  _77
REMARK   34  A    between atoms: _77  and  _78
REMARK   35  A    between atoms: _81  and  _83
REMARK   36  A    between atoms: _83  and  _84
REMARK   37  A    between atoms: _83  and  _86
REMARK   38  A    between atoms: _86  and  _87
REMARK   39  A    between atoms: _87  and  _88
REMARK   40  A    between atoms: _93  and  _95
REMARK   41  A    between atoms: _95  and  _96
REMARK   42  A    between atoms: _95  and  _98
REMARK   43  A    between atoms: _98  and  _99
REMARK   44  A    between atoms: _102  and  _104
REMARK   45  A    between atoms: _104  and  _105
REMARK   46  A    between atoms: _104  and  _107
REMARK   47  A    between atoms: _107  and  _108
REMARK   48  A    between atoms: _111  and  _113
REMARK   49  A    between atoms: _113  and  _114
REMARK   50  A    between atoms: _116  and  _118
REMARK   51  A    between atoms: _118  and  _119
REMARK   52  A    between atoms: _118  and  _121
REMARK   53  A    between atoms: _123  and  _125
REMARK   54  A    between atoms: _125  and  _126
REMARK   55  A    between atoms: _128  and  _130
REMARK   56  A    between atoms: _130  and  _131
REMARK   57  A    between atoms: _130  and  _133
REMARK   58  A    between atoms: _133  and  _134
REMARK   59  A    between atoms: _134  and  _135
REMARK   60  A    between atoms: _135  and  _136
REMARK   61  A    between atoms: _145  and  _147
REMARK   62  A    between atoms: _147  and  _148
REMARK   63  A    between atoms: _150  and  _152
REMARK   64  A    between atoms: _152  and  _153
REMARK   65  A    between atoms: _155  and  _157
REMARK   66  A    between atoms: _157  and  _158
REMARK   67  A    between atoms: _157  and  _160
REMARK   68  A    between atoms: _160  and  _161
REMARK   69  A    between atoms: _171  and  _173
REMARK   70  A    between atoms: _173  and  _174
REMARK   71  A    between atoms: _173  and  _176
REMARK   72  A    between atoms: _176  and  _177
REMARK   73  A    between atoms: _179  and  _181
REMARK   74  A    between atoms: _181  and  _182
REMARK   75  A    between atoms: _181  and  _184
REMARK   76  A    between atoms: _184  and  _185
REMARK   77  A    between atoms: _190  and  _191
REMARK   78  A    between atoms: _193  and  _195
REMARK   79  A    between atoms: _195  and  _196
REMARK   80  A    between atoms: _195  and  _198
REMARK   81  A    between atoms: _198  and  _199
REMARK   82  A    between atoms: _204  and  _205
REMARK   83  A    between atoms: _207  and  _209
REMARK   84  A    between atoms: _209  and  _210
REMARK   85  A    between atoms: _209  and  _212
REMARK   86  A    between atoms: _212  and  _213
REMARK   87  A    between atoms: _218  and  _219
REMARK   88  A    between atoms: _221  and  _223
REMARK   89  A    between atoms: _223  and  _224
REMARK   90  A    between atoms: _223  and  _226
REMARK   91  A    between atoms: _226  and  _227
REMARK   92  A    between atoms: _230  and  _232
REMARK   93  A    between atoms: _232  and  _233
REMARK   94  A    between atoms: _232  and  _235
REMARK   95  A    between atoms: _235  and  _236
REMARK   96  A    between atoms: _236  and  _237
REMARK   97  A    between atoms: _237  and  _238
REMARK   98  A    between atoms: _238  and  _239
REMARK   99  A    between atoms: _243  and  _245
REMARK  100  A    between atoms: _245  and  _246
REMARK  101  A    between atoms: _248  and  _250
REMARK  102  A    between atoms: _250  and  _251
REMARK  103  A    between atoms: _254  and  _255
REMARK  104  A    between atoms: _260  and  _262
REMARK  105  A    between atoms: _262  and  _263
REMARK  106  A    between atoms: _265  and  _267
REMARK  107  A    between atoms: _267  and  _268
REMARK  108  A    between atoms: _267  and  _270
REMARK  109  A    between atoms: _270  and  _271
REMARK  110  A    between atoms: _276  and  _278
REMARK  111  A    between atoms: _278  and  _279
REMARK  112  A    between atoms: _278  and  _281
REMARK  113  A    between atoms: _281  and  _282
REMARK  114  A    between atoms: _282  and  _283
REMARK  115  A    between atoms: _286  and  _288
REMARK  116  A    between atoms: _288  and  _289
REMARK  117  A    between atoms: _288  and  _291
REMARK  118  A    between atoms: _291  and  _292
REMARK  119  A    between atoms: _292  and  _293
REMARK  120  A    between atoms: _297  and  _298
REMARK  121  A    between atoms: _303  and  _305
REMARK  122  A    between atoms: _305  and  _306
REMARK  123  A    between atoms: _305  and  _308
REMARK  124  A    between atoms: _311  and  _313
REMARK  125  A    between atoms: _313  and  _314
REMARK  126  A    between atoms: _313  and  _316
REMARK  127  A    between atoms: _316  and  _317
REMARK  128  A    between atoms: _317  and  _318
REMARK  129  A    between atoms: _320  and  _322
REMARK  130  A    between atoms: _322  and  _323
REMARK  131  A    between atoms: _322  and  _325
REMARK  132  A    between atoms: _325  and  _326
REMARK  133  A    between atoms: _328  and  _330
REMARK  134  A    between atoms: _330  and  _331
REMARK  135  A    between atoms: _333  and  _335
REMARK  136  A    between atoms: _335  and  _336
REMARK  137  A    between atoms: _335  and  _338
REMARK  138  A    between atoms: _338  and  _339
REMARK  139  A    between atoms: _339  and  _340
REMARK  140  A    between atoms: _340  and  _341
REMARK  141  A    between atoms: _341  and  _342
REMARK  142  A    between atoms: _346  and  _348
REMARK  143  A    between atoms: _348  and  _349
REMARK  144  A    between atoms: _348  and  _351
REMARK  145  A    between atoms: _351  and  _352
REMARK  146  A    between atoms: _355  and  _357
REMARK  147  A    between atoms: _357  and  _358
REMARK  148  A    between atoms: _357  and  _360
REMARK  149  A    between atoms: _363  and  _365
REMARK  150  A    between atoms: _365  and  _366
REMARK  151  A    between atoms: _365  and  _368
REMARK  152  A    between atoms: _368  and  _369
REMARK  153  A    between atoms: _375  and  _377
REMARK  154  A    between atoms: _377  and  _378
REMARK  155  A    between atoms: _377  and  _380
REMARK  156  A    between atoms: _380  and  _381
REMARK  157  A    between atoms: _386  and  _387
REMARK  158  A    between atoms: _389  and  _391
REMARK  159  A    between atoms: _391  and  _392
REMARK  160  A    between atoms: _391  and  _394
REMARK  161  A    between atoms: _394  and  _395
REMARK  162  A    between atoms: _398  and  _400
REMARK  163  A    between atoms: _400  and  _401
REMARK  164  A    between atoms: _400  and  _403
REMARK  165  A    between atoms: _403  and  _404
REMARK  166  A    between atoms: _407  and  _409
REMARK  167  A    between atoms: _409  and  _410
REMARK  168  A    between atoms: _409  and  _412
REMARK  169  A    between atoms: _414  and  _416
REMARK  170  A    between atoms: _416  and  _417
REMARK  171  A    between atoms: _416  and  _419
REMARK  172  A    between atoms: _419  and  _420
REMARK  173  A    between atoms: _423  and  _425
REMARK  174  A    between atoms: _425  and  _426
REMARK  175  A    between atoms: _425  and  _428
REMARK  176  A    between atoms: _428  and  _429
REMARK  177  A    between atoms: _432  and  _434
REMARK  178  A    between atoms: _434  and  _435
REMARK  179  A    between atoms: _437  and  _439
REMARK  180  A    between atoms: _439  and  _440
REMARK  181  A    between atoms: _439  and  _442
REMARK  182  A    between atoms: _442  and  _443
REMARK  183  A    between atoms: _443  and  _444
REMARK  184  A    between atoms: _447  and  _449
REMARK  185  A    between atoms: _449  and  _450
REMARK  186  A    between atoms: _449  and  _452
REMARK  187  A    between atoms: _452  and  _453
REMARK  188  A    between atoms: _455  and  _457
REMARK  189  A    between atoms: _457  and  _458
REMARK  190  A    between atoms: _457  and  _460
REMARK  191  A    between atoms: _460  and  _461
REMARK  192  A    between atoms: _461  and  _462
REMARK  193  A    between atoms: _462  and  _463
REMARK  194  A    between atoms: _472  and  _474
REMARK  195  A    between atoms: _474  and  _475
REMARK  196  A    between atoms: _474  and  _477
REMARK  197  A    between atoms: _477  and  _478
REMARK  198  A    between atoms: _481  and  _483
REMARK  199  A    between atoms: _483  and  _484
REMARK  200  A    between atoms: _483  and  _486
REMARK  201  A    between atoms: _486  and  _487
REMARK  202  A    between atoms: _490  and  _492
REMARK  203  A    between atoms: _492  and  _493
REMARK  204  A    between atoms: _492  and  _495
REMARK  205  A    between atoms: _495  and  _496
REMARK  206  A    between atoms: _496  and  _497
REMARK  207  A    between atoms: _497  and  _498
REMARK  208  A    between atoms: _507  and  _509
REMARK  209  A    between atoms: _509  and  _510
REMARK  210  A    between atoms: _509  and  _512
REMARK  211  A    between atoms: _515  and  _517
REMARK  212  A    between atoms: _517  and  _518
REMARK  213  A    between atoms: _517  and  _520
REMARK  214  A    between atoms: _520  and  _521
REMARK  215  A    between atoms: _524  and  _526
REMARK  216  A    between atoms: _526  and  _527
REMARK  217  A    between atoms: _526  and  _529
REMARK  218  A    between atoms: _529  and  _530
REMARK  219  A    between atoms: _530  and  _531
REMARK  220  A    between atoms: _531  and  _532
REMARK  221  A    between atoms: _532  and  _533
REMARK  222  A    between atoms: _537  and  _539
REMARK  223  A    between atoms: _539  and  _540
REMARK  224  A    between atoms: _539  and  _542
REMARK  225  A    between atoms: _542  and  _543
REMARK  226  A    between atoms: _543  and  _544
REMARK  227  A    between atoms: _546  and  _548
REMARK  228  A    between atoms: _548  and  _549
REMARK  229  A    between atoms: _548  and  _551
REMARK  230  A    between atoms: _554  and  _556
REMARK  231  A    between atoms: _556  and  _557
REMARK  232  A    between atoms: _556  and  _559
REMARK  233  A    between atoms: _559  and  _560
REMARK  234  A    between atoms: _570  and  _572
REMARK  235  A    between atoms: _572  and  _573
REMARK  236  A    between atoms: _572  and  _575
REMARK  237  A    between atoms: _575  and  _576
REMARK  238  A    between atoms: _576  and  _577
REMARK  239  A    between atoms: _577  and  _578
REMARK  240  A    between atoms: _578  and  _579
REMARK  241  A    between atoms: _583  and  _585
REMARK  242  A    between atoms: _585  and  _586
REMARK  243  A    between atoms: _585  and  _588
REMARK  244  A    between atoms: _588  and  _589
REMARK  245  A    between atoms: _592  and  _594
REMARK  246  A    between atoms: _594  and  _595
REMARK  247  A    between atoms: _594  and  _597
REMARK  248  A    between atoms: _597  and  _598
REMARK  249  A    between atoms: _603  and  _604
REMARK                            x       y       z     vdW  Elec       q    Type
REMARK                         _______ _______ _______ _____ _____    ______ ____
ROOT
ATOM      1  O   HOH     1      -3.341   8.053  33.481  0.00  0.00    +0.000 OA
ENDROOT
TORSDOF 0
REMARK  Name = ../refined-set-2016/3p8z/3p8z_pocket.pdb
REMARK  249 active torsions:
REMARK  status: ('A' for Active; 'I' for Inactive)
REMARK    1  A    between atoms: _1  and  _3
REMARK    2  A    between atoms: _3  and  _4
REMARK    3  A    between atoms: _7  and  _9
REMARK    4  A    between atoms: _9  and  _10
REMARK    5  A    between atoms: _9  and  _12
REMARK    6  A    between atoms: _15  and  _17
REMARK    7  A    between atoms: _17  and  _18
REMARK    8  A    between atoms: _17  and  _20
REMARK    9  A    between atoms: _20  and  _21
REMARK   10  A    between atoms: _23  and  _25
REMARK   11  A    between atoms: _25  and  _26
REMARK   12  A    between atoms: _25  and  _28
REMARK   13  A    between atoms: _28  and  _29
REMARK   14  A    between atoms: _29  and  _30
REMARK   15  A    between atoms: _30  and  _31
REMARK   16  A    between atoms: _40  and  _42
REMARK   17  A    between atoms: _42  and  _43
REMARK   18  A    between atoms: _45  and  _47
REMARK   19  A    between atoms: _47  and  _48
REMARK   20  A    between atoms: _47  and  _50
REMARK   21  A    between atoms: _50  and  _51
REMARK   22  A    between atoms: _53  and  _55
REMARK   23  A    between atoms: _55  and  _56
REMARK   24  A    between atoms: _59  and  _61
REMARK   25  A    between atoms: _61  and  _62
REMARK   26  A    between atoms: _61  and  _64
REMARK   27  A    between atoms: _64  and  _65
REMARK   28  A    between atoms: _65  and  _66
REMARK   29  A    between atoms: _66  and  _67
REMARK   30  A    between atoms: _67  and  _68
REMARK   31  A    between atoms: _72  and  _74
REMARK   32  A    between atoms: _74  and  _75
REMARK   33  A    between atoms: _74  and  _77
REMARK   34  A    between atoms: _77  and  _78
REMARK   35  A    between atoms: _81  and  _83
REMARK   36  A    between atoms: _83  and  _84
REMARK   37  A    between atoms: _83  and  _86
REMARK   38  A    between atoms: _86  and  _87
REMARK   39  A    between atoms: _87  and  _88
REMARK   40  A    between atoms: _93  and  _95
REMARK   41  A    between atoms: _95  and  _96
REMARK   42  A    between atoms: _95  and  _98
REMARK   43  A    between atoms: _98  and  _99
REMARK   44  A    between atoms: _102  and  _104
REMARK   45  A    between atoms: _104  and  _105
REMARK   46  A    between atoms: _104  and  _107
REMARK   47  A    between atoms: _107  and  _108
REMARK   48  A    between atoms: _111  and  _113
REMARK   49  A    between atoms: _113  and  _114
REMARK   50  A    between atoms: _116  and  _118
REMARK   51  A    between atoms: _118  and  _119
REMARK   52  A    between atoms: _118  and  _121
REMARK   53  A    between atoms: _123  and  _125
REMARK   54  A    between atoms: _125  and  _126
REMARK   55  A    between atoms: _128  and  _130
REMARK   56  A    between atoms: _130  and  _131
REMARK   57  A    between atoms: _130  and  _133
REMARK   58  A    between atoms: _133  and  _134
REMARK   59  A    between atoms: _134  and  _135
REMARK   60  A    between atoms: _135  and  _136
REMARK   61  A    between atoms: _145  and  _147
REMARK   62  A    between atoms: _147  and  _148
REMARK   63  A    between atoms: _150  and  _152
REMARK   64  A    between atoms: _152  and  _153
REMARK   65  A    between atoms: _155  and  _157
REMARK   66  A    between atoms: _157  and  _158
REMARK   67  A    between atoms: _157  and  _160
REMARK   68  A    between atoms: _160  and  _161
REMARK   69  A    between atoms: _171  and  _173
REMARK   70  A    between atoms: _173  and  _174
REMARK   71  A    between atoms: _173  and  _176
REMARK   72  A    between atoms: _176  and  _177
REMARK   73  A    between atoms: _179  and  _181
REMARK   74  A    between atoms: _181  and  _182
REMARK   75  A    between atoms: _181  and  _184
REMARK   76  A    between atoms: _184  and  _185
REMARK   77  A    between atoms: _190  and  _191
REMARK   78  A    between atoms: _193  and  _195
REMARK   79  A    between atoms: _195  and  _196
REMARK   80  A    between atoms: _195  and  _198
REMARK   81  A    between atoms: _198  and  _199
REMARK   82  A    between atoms: _204  and  _205
REMARK   83  A    between atoms: _207  and  _209
REMARK   84  A    between atoms: _209  and  _210
REMARK   85  A    between atoms: _209  and  _212
REMARK   86  A    between atoms: _212  and  _213
REMARK   87  A    between atoms: _218  and  _219
REMARK   88  A    between atoms: _221  and  _223
REMARK   89  A    between atoms: _223  and  _224
REMARK   90  A    between atoms: _223  and  _226
REMARK   91  A    between atoms: _226  and  _227
REMARK   92  A    between atoms: _230  and  _232
REMARK   93  A    between atoms: _232  and  _233
REMARK   94  A    between atoms: _232  and  _235
REMARK   95  A    between atoms: _235  and  _236
REMARK   96  A    between atoms: _236  and  _237
REMARK   97  A    between atoms: _237  and  _238
REMARK   98  A    between atoms: _238  and  _239
REMARK   99  A    between atoms: _243  and  _245
REMARK  100  A    between atoms: _245  and  _246
REMARK  101  A    between atoms: _248  and  _250
REMARK  102  A    between atoms: _250  and  _251
REMARK  103  A    between atoms: _254  and  _255
REMARK  104  A    between atoms: _260  and  _262
REMARK  105  A    between atoms: _262  and  _263
REMARK  106  A    between atoms: _265  and  _267
REMARK  107  A    between atoms: _267  and  _268
REMARK  108  A    between atoms: _267  and  _270
REMARK  109  A    between atoms: _270  and  _271
REMARK  110  A    between atoms: _276  and  _278
REMARK  111  A    between atoms: _278  and  _279
REMARK  112  A    between atoms: _278  and  _281
REMARK  113  A    between atoms: _281  and  _282
REMARK  114  A    between atoms: _282  and  _283
REMARK  115  A    between atoms: _286  and  _288
REMARK  116  A    between atoms: _288  and  _289
REMARK  117  A    between atoms: _288  and  _291
REMARK  118  A    between atoms: _291  and  _292
REMARK  119  A    between atoms: _292  and  _293
REMARK  120  A    between atoms: _297  and  _298
REMARK  121  A    between atoms: _303  and  _305
REMARK  122  A    between atoms: _305  and  _306
REMARK  123  A    between atoms: _305  and  _308
REMARK  124  A    between atoms: _311  and  _313
REMARK  125  A    between atoms: _313  and  _314
REMARK  126  A    between atoms: _313  and  _316
REMARK  127  A    between atoms: _316  and  _317
REMARK  128  A    between atoms: _317  and  _318
REMARK  129  A    between atoms: _320  and  _322
REMARK  130  A    between atoms: _322  and  _323
REMARK  131  A    between atoms: _322  and  _325
REMARK  132  A    between atoms: _325  and  _326
REMARK  133  A    between atoms: _328  and  _330
REMARK  134  A    between atoms: _330  and  _331
REMARK  135  A    between atoms: _333  and  _335
REMARK  136  A    between atoms: _335  and  _336
REMARK  137  A    between atoms: _335  and  _338
REMARK  138  A    between atoms: _338  and  _339
REMARK  139  A    between atoms: _339  and  _340
REMARK  140  A    between atoms: _340  and  _341
REMARK  141  A    between atoms: _341  and  _342
REMARK  142  A    between atoms: _346  and  _348
REMARK  143  A    between atoms: _348  and  _349
REMARK  144  A    between atoms: _348  and  _351
REMARK  145  A    between atoms: _351  and  _352
REMARK  146  A    between atoms: _355  and  _357
REMARK  147  A    between atoms: _357  and  _358
REMARK  148  A    between atoms: _357  and  _360
REMARK  149  A    between atoms: _363  and  _365
REMARK  150  A    between atoms: _365  and  _366
REMARK  151  A    between atoms: _365  and  _368
REMARK  152  A    between atoms: _368  and  _369
REMARK  153  A    between atoms: _375  and  _377
REMARK  154  A    between atoms: _377  and  _378
REMARK  155  A    between atoms: _377  and  _380
REMARK  156  A    between atoms: _380  and  _381
REMARK  157  A    between atoms: _386  and  _387
REMARK  158  A    between atoms: _389  and  _391
REMARK  159  A    between atoms: _391  and  _392
REMARK  160  A    between atoms: _391  and  _394
REMARK  161  A    between atoms: _394  and  _395
REMARK  162  A    between atoms: _398  and  _400
REMARK  163  A    between atoms: _400  and  _401
REMARK  164  A    between atoms: _400  and  _403
REMARK  165  A    between atoms: _403  and  _404
REMARK  166  A    between atoms: _407  and  _409
REMARK  167  A    between atoms: _409  and  _410
REMARK  168  A    between atoms: _409  and  _412
REMARK  169  A    between atoms: _414  and  _416
REMARK  170  A    between atoms: _416  and  _417
REMARK  171  A    between atoms: _416  and  _419
REMARK  172  A    between atoms: _419  and  _420
REMARK  173  A    between atoms: _423  and  _425
REMARK  174  A    between atoms: _425  and  _426
REMARK  175  A    between atoms: _425  and  _428
REMARK  176  A    between atoms: _428  and  _429
REMARK  177  A    between atoms: _432  and  _434
REMARK  178  A    between atoms: _434  and  _435
REMARK  179  A    between atoms: _437  and  _439
REMARK  180  A    between atoms: _439  and  _440
REMARK  181  A    between atoms: _439  and  _442
REMARK  182  A    between atoms: _442  and  _443
REMARK  183  A    between atoms: _443  and  _444
REMARK  184  A    between atoms: _447  and  _449
REMARK  185  A    between atoms: _449  and  _450
REMARK  186  A    between atoms: _449  and  _452
REMARK  187  A    between atoms: _452  and  _453
REMARK  188  A    between atoms: _455  and  _457
REMARK  189  A    between atoms: _457  and  _458
REMARK  190  A    between atoms: _457  and  _460
REMARK  191  A    between atoms: _460  and  _461
REMARK  192  A    between atoms: _461  and  _462
REMARK  193  A    between atoms: _462  and  _463
REMARK  194  A    between atoms: _472  and  _474
REMARK  195  A    between atoms: _474  and  _475
REMARK  196  A    between atoms: _474  and  _477
REMARK  197  A    between atoms: _477  and  _478
REMARK  198  A    between atoms: _481  and  _483
REMARK  199  A    between atoms: _483  and  _484
REMARK  200  A    between atoms: _483  and  _486
REMARK  201  A    between atoms: _486  and  _487
REMARK  202  A    between atoms: _490  and  _492
REMARK  203  A    between atoms: _492  and  _493
REMARK  204  A    between atoms: _492  and  _495
REMARK  205  A    between atoms: _495  and  _496
REMARK  206  A    between atoms: _496  and  _497
REMARK  207  A    between atoms: _497  and  _498
REMARK  208  A    between atoms: _507  and  _509
REMARK  209  A    between atoms: _509  and  _510
REMARK  210  A    between atoms: _509  and  _512
REMARK  211  A    between atoms: _515  and  _517
REMARK  212  A    between atoms: _517  and  _518
REMARK  213  A    between atoms: _517  and  _520
REMARK  214  A    between atoms: _520  and  _521
REMARK  215  A    between atoms: _524  and  _526
REMARK  216  A    between atoms: _526  and  _527
REMARK  217  A    between atoms: _526  and  _529
REMARK  218  A    between atoms: _529  and  _530
REMARK  219  A    between atoms: _530  and  _531
REMARK  220  A    between atoms: _531  and  _532
REMARK  221  A    between atoms: _532  and  _533
REMARK  222  A    between atoms: _537  and  _539
REMARK  223  A    between atoms: _539  and  _540
REMARK  224  A    between atoms: _539  and  _542
REMARK  225  A    between atoms: _542  and  _543
REMARK  226  A    between atoms: _543  and  _544
REMARK  227  A    between atoms: _546  and  _548
REMARK  228  A    between atoms: _548  and  _549
REMARK  229  A    between atoms: _548  and  _551
REMARK  230  A    between atoms: _554  and  _556
REMARK  231  A    between atoms: _556  and  _557
REMARK  232  A    between atoms: _556  and  _559
REMARK  233  A    between atoms: _559  and  _560
REMARK  234  A    between atoms: _570  and  _572
REMARK  235  A    between atoms: _572  and  _573
REMARK  236  A    between atoms: _572  and  _575
REMARK  237  A    between atoms: _575  and  _576
REMARK  238  A    between atoms: _576  and  _577
REMARK  239  A    between atoms: _577  and  _578
REMARK  240  A    between atoms: _578  and  _579
REMARK  241  A    between atoms: _583  and  _585
REMARK  242  A    between atoms: _585  and  _586
REMARK  243  A    between atoms: _585  and  _588
REMARK  244  A    between atoms: _588  and  _589
REMARK  245  A    between atoms: _592  and  _594
REMARK  246  A    between atoms: _594  and  _595
REMARK  247  A    between atoms: _594  and  _597
REMARK  248  A    between atoms: _597  and  _598
REMARK  249  A    between atoms: _603  and  _604
REMARK                            x       y       z     vdW  Elec       q    Type
REMARK                         _______ _______ _______ _____ _____    ______ ____
ROOT
ATOM      1  O   HOH     1       0.389  -9.348  47.836  0.00  0.00    +0.000 OA
ENDROOT
TORSDOF 0
REMARK  Name = ../refined-set-2016/3p8z/3p8z_pocket.pdb
REMARK  249 active torsions:
REMARK  status: ('A' for Active; 'I' for Inactive)
REMARK    1  A    between atoms: _1  and  _3
REMARK    2  A    between atoms: _3  and  _4
REMARK    3  A    between atoms: _7  and  _9
REMARK    4  A    between atoms: _9  and  _10
REMARK    5  A    between atoms: _9  and  _12
REMARK    6  A    between atoms: _15  and  _17
REMARK    7  A    between atoms: _17  and  _18
REMARK    8  A    between atoms: _17  and  _20
REMARK    9  A    between atoms: _20  and  _21
REMARK   10  A    between atoms: _23  and  _25
REMARK   11  A    between atoms: _25  and  _26
REMARK   12  A    between atoms: _25  and  _28
REMARK   13  A    between atoms: _28  and  _29
REMARK   14  A    between atoms: _29  and  _30
REMARK   15  A    between atoms: _30  and  _31
REMARK   16  A    between atoms: _40  and  _42
REMARK   17  A    between atoms: _42  and  _43
REMARK   18  A    between atoms: _45  and  _47
REMARK   19  A    between atoms: _47  and  _48
REMARK   20  A    between atoms: _47  and  _50
REMARK   21  A    between atoms: _50  and  _51
REMARK   22  A    between atoms: _53  and  _55
REMARK   23  A    between atoms: _55  and  _56
REMARK   24  A    between atoms: _59  and  _61
REMARK   25  A    between atoms: _61  and  _62
REMARK   26  A    between atoms: _61  and  _64
REMARK   27  A    between atoms: _64  and  _65
REMARK   28  A    between atoms: _65  and  _66
REMARK   29  A    between atoms: _66  and  _67
REMARK   30  A    between atoms: _67  and  _68
REMARK   31  A    between atoms: _72  and  _74
REMARK   32  A    between atoms: _74  and  _75
REMARK   33  A    between atoms: _74  and  _77
REMARK   34  A    between atoms: _77  and  _78
REMARK   35  A    between atoms: _81  and  _83
REMARK   36  A    between atoms: _83  and  _84
REMARK   37  A    between atoms: _83  and  _86
REMARK   38  A    between atoms: _86  and  _87
REMARK   39  A    between atoms: _87  and  _88
REMARK   40  A    between atoms: _93  and  _95
REMARK   41  A    between atoms: _95  and  _96
REMARK   42  A    between atoms: _95  and  _98
REMARK   43  A    between atoms: _98  and  _99
REMARK   44  A    between atoms: _102  and  _104
REMARK   45  A    between atoms: _104  and  _105
REMARK   46  A    between atoms: _104  and  _107
REMARK   47  A    between atoms: _107  and  _108
REMARK   48  A    between atoms: _111  and  _113
REMARK   49  A    between atoms: _113  and  _114
REMARK   50  A    between atoms: _116  and  _118
REMARK   51  A    between atoms: _118  and  _119
REMARK   52  A    between atoms: _118  and  _121
REMARK   53  A    between atoms: _123  and  _125
REMARK   54  A    between atoms: _125  and  _126
REMARK   55  A    between atoms: _128  and  _130
REMARK   56  A    between atoms: _130  and  _131
REMARK   57  A    between atoms: _130  and  _133
REMARK   58  A    between atoms: _133  and  _134
REMARK   59  A    between atoms: _134  and  _135
REMARK   60  A    between atoms: _135  and  _136
REMARK   61  A    between atoms: _145  and  _147
REMARK   62  A    between atoms: _147  and  _148
REMARK   63  A    between atoms: _150  and  _152
REMARK   64  A    between atoms: _152  and  _153
REMARK   65  A    between atoms: _155  and  _157
REMARK   66  A    between atoms: _157  and  _158
REMARK   67  A    between atoms: _157  and  _160
REMARK   68  A    between atoms: _160  and  _161
REMARK   69  A    between atoms: _171  and  _173
REMARK   70  A    between atoms: _173  and  _174
REMARK   71  A    between atoms: _173  and  _176
REMARK   72  A    between atoms: _176  and  _177
REMARK   73  A    between atoms: _179  and  _181
REMARK   74  A    between atoms: _181  and  _182
REMARK   75  A    between atoms: _181  and  _184
REMARK   76  A    between atoms: _184  and  _185
REMARK   77  A    between atoms: _190  and  _191
REMARK   78  A    between atoms: _193  and  _195
REMARK   79  A    between atoms: _195  and  _196
REMARK   80  A    between atoms: _195  and  _198
REMARK   81  A    between atoms: _198  and  _199
REMARK   82  A    between atoms: _204  and  _205
REMARK   83  A    between atoms: _207  and  _209
REMARK   84  A    between atoms: _209  and  _210
REMARK   85  A    between atoms: _209  and  _212
REMARK   86  A    between atoms: _212  and  _213
REMARK   87  A    between atoms: _218  and  _219
REMARK   88  A    between atoms: _221  and  _223
REMARK   89  A    between atoms: _223  and  _224
REMARK   90  A    between atoms: _223  and  _226
REMARK   91  A    between atoms: _226  and  _227
REMARK   92  A    between atoms: _230  and  _232
REMARK   93  A    between atoms: _232  and  _233
REMARK   94  A    between atoms: _232  and  _235
REMARK   95  A    between atoms: _235  and  _236
REMARK   96  A    between atoms: _236  and  _237
REMARK   97  A    between atoms: _237  and  _238
REMARK   98  A    between atoms: _238  and  _239
REMARK   99  A    between atoms: _243  and  _245
REMARK  100  A    between atoms: _245  and  _246
REMARK  101  A    between atoms: _248  and  _250
REMARK  102  A    between atoms: _250  and  _251
REMARK  103  A    between atoms: _254  and  _255
REMARK  104  A    between atoms: _260  and  _262
REMARK  105  A    between atoms: _262  and  _263
REMARK  106  A    between atoms: _265  and  _267
REMARK  107  A    between atoms: _267  and  _268
REMARK  108  A    between atoms: _267  and  _270
REMARK  109  A    between atoms: _270  and  _271
REMARK  110  A    between atoms: _276  and  _278
REMARK  111  A    between atoms: _278  and  _279
REMARK  112  A    between atoms: _278  and  _281
REMARK  113  A    between atoms: _281  and  _282
REMARK  114  A    between atoms: _282  and  _283
REMARK  115  A    between atoms: _286  and  _288
REMARK  116  A    between atoms: _288  and  _289
REMARK  117  A    between atoms: _288  and  _291
REMARK  118  A    between atoms: _291  and  _292
REMARK  119  A    between atoms: _292  and  _293
REMARK  120  A    between atoms: _297  and  _298
REMARK  121  A    between atoms: _303  and  _305
REMARK  122  A    between atoms: _305  and  _306
REMARK  123  A    between atoms: _305  and  _308
REMARK  124  A    between atoms: _311  and  _313
REMARK  125  A    between atoms: _313  and  _314
REMARK  126  A    between atoms: _313  and  _316
REMARK  127  A    between atoms: _316  and  _317
REMARK  128  A    between atoms: _317  and  _318
REMARK  129  A    between atoms: _320  and  _322
REMARK  130  A    between atoms: _322  and  _323
REMARK  131  A    between atoms: _322  and  _325
REMARK  132  A    between atoms: _325  and  _326
REMARK  133  A    between atoms: _328  and  _330
REMARK  134  A    between atoms: _330  and  _331
REMARK  135  A    between atoms: _333  and  _335
REMARK  136  A    between atoms: _335  and  _336
REMARK  137  A    between atoms: _335  and  _338
REMARK  138  A    between atoms: _338  and  _339
REMARK  139  A    between atoms: _339  and  _340
REMARK  140  A    between atoms: _340  and  _341
REMARK  141  A    between atoms: _341  and  _342
REMARK  142  A    between atoms: _346  and  _348
REMARK  143  A    between atoms: _348  and  _349
REMARK  144  A    between atoms: _348  and  _351
REMARK  145  A    between atoms: _351  and  _352
REMARK  146  A    between atoms: _355  and  _357
REMARK  147  A    between atoms: _357  and  _358
REMARK  148  A    between atoms: _357  and  _360
REMARK  149  A    between atoms: _363  and  _365
REMARK  150  A    between atoms: _365  and  _366
REMARK  151  A    between atoms: _365  and  _368
REMARK  152  A    between atoms: _368  and  _369
REMARK  153  A    between atoms: _375  and  _377
REMARK  154  A    between atoms: _377  and  _378
REMARK  155  A    between atoms: _377  and  _380
REMARK  156  A    between atoms: _380  and  _381
REMARK  157  A    between atoms: _386  and  _387
REMARK  158  A    between atoms: _389  and  _391
REMARK  159  A    between atoms: _391  and  _392
REMARK  160  A    between atoms: _391  and  _394
REMARK  161  A    between atoms: _394  and  _395
REMARK  162  A    between atoms: _398  and  _400
REMARK  163  A    between atoms: _400  and  _401
REMARK  164  A    between atoms: _400  and  _403
REMARK  165  A    between atoms: _403  and  _404
REMARK  166  A    between atoms: _407  and  _409
REMARK  167  A    between atoms: _409  and  _410
REMARK  168  A    between atoms: _409  and  _412
REMARK  169  A    between atoms: _414  and  _416
REMARK  170  A    between atoms: _416  and  _417
REMARK  171  A    between atoms: _416  and  _419
REMARK  172  A    between atoms: _419  and  _420
REMARK  173  A    between atoms: _423  and  _425
REMARK  174  A    between atoms: _425  and  _426
REMARK  175  A    between atoms: _425  and  _428
REMARK  176  A    between atoms: _428  and  _429
REMARK  177  A    between atoms: _432  and  _434
REMARK  178  A    between atoms: _434  and  _435
REMARK  179  A    between atoms: _437  and  _439
REMARK  180  A    between atoms: _439  and  _440
REMARK  181  A    between atoms: _439  and  _442
REMARK  182  A    between atoms: _442  and  _443
REMARK  183  A    between atoms: _443  and  _444
REMARK  184  A    between atoms: _447  and  _449
REMARK  185  A    between atoms: _449  and  _450
REMARK  186  A    between atoms: _449  and  _452
REMARK  187  A    between atoms: _452  and  _453
REMARK  188  A    between atoms: _455  and  _457
REMARK  189  A    between atoms: _457  and  _458
REMARK  190  A    between atoms: _457  and  _460
REMARK  191  A    between atoms: _460  and  _461
REMARK  192  A    between atoms: _461  and  _462
REMARK  193  A    between atoms: _462  and  _463
REMARK  194  A    between atoms: _472  and  _474
REMARK  195  A    between atoms: _474  and  _475
REMARK  196  A    between atoms: _474  and  _477
REMARK  197  A    between atoms: _477  and  _478
REMARK  198  A    between atoms: _481  and  _483
REMARK  199  A    between atoms: _483  and  _484
REMARK  200  A    between atoms: _483  and  _486
REMARK  201  A    between atoms: _486  and  _487
REMARK  202  A    between atoms: _490  and  _492
REMARK  203  A    between atoms: _492  and  _493
REMARK  204  A    between atoms: _492  and  _495
REMARK  205  A    between atoms: _495  and  _496
REMARK  206  A    between atoms: _496  and  _497
REMARK  207  A    between atoms: _497  and  _498
REMARK  208  A    between atoms: _507  and  _509
REMARK  209  A    between atoms: _509  and  _510
REMARK  210  A    between atoms: _509  and  _512
REMARK  211  A    between atoms: _515  and  _517
REMARK  212  A    between atoms: _517  and  _518
REMARK  213  A    between atoms: _517  and  _520
REMARK  214  A    between atoms: _520  and  _521
REMARK  215  A    between atoms: _524  and  _526
REMARK  216  A    between atoms: _526  and  _527
REMARK  217  A    between atoms: _526  and  _529
REMARK  218  A    between atoms: _529  and  _530
REMARK  219  A    between atoms: _530  and  _531
REMARK  220  A    between atoms: _531  and  _532
REMARK  221  A    between atoms: _532  and  _533
REMARK  222  A    between atoms: _537  and  _539
REMARK  223  A    between atoms: _539  and  _540
REMARK  224  A    between atoms: _539  and  _542
REMARK  225  A    between atoms: _542  and  _543
REMARK  226  A    between atoms: _543  and  _544
REMARK  227  A    between atoms: _546  and  _548
REMARK  228  A    between atoms: _548  and  _549
REMARK  229  A    between atoms: _548  and  _551
REMARK  230  A    between atoms: _554  and  _556
REMARK  231  A    between atoms: _556  and  _557
REMARK  232  A    between atoms: _556  and  _559
REMARK  233  A    between atoms: _559  and  _560
REMARK  234  A    between atoms: _570  and  _572
REMARK  235  A    between atoms: _572  and  _573
REMARK  236  A    between atoms: _572  and  _575
REMARK  237  A    between atoms: _575  and  _576
REMARK  238  A    between atoms: _576  and  _577
REMARK  239  A    between atoms: _577  and  _578
REMARK  240  A    between atoms: _578  and  _579
REMARK  241  A    between atoms: _583  and  _585
REMARK  242  A    between atoms: _585  and  _586
REMARK  243  A    between atoms: _585  and  _588
REMARK  244  A    between atoms: _588  and  _589
REMARK  245  A    between atoms: _592  and  _594
REMARK  246  A    between atoms: _594  and  _595
REMARK  247  A    between atoms: _594  and  _597
REMARK  248  A    between atoms: _597  and  _598
REMARK  249  A    between atoms: _603  and  _604
REMARK                            x       y       z     vdW  Elec       q    Type
REMARK                         _______ _______ _______ _____ _____    ______ ____
ROOT
ATOM      1  O   HOH     1       2.102  -7.789  44.604  0.00  0.00    +0.000 OA
ENDROOT
TORSDOF 0
REMARK  Name = ../refined-set-2016/3p8z/3p8z_pocket.pdb
REMARK  249 active torsions:
REMARK  status: ('A' for Active; 'I' for Inactive)
REMARK    1  A    between atoms: _1  and  _3
REMARK    2  A    between atoms: _3  and  _4
REMARK    3  A    between atoms: _7  and  _9
REMARK    4  A    between atoms: _9  and  _10
REMARK    5  A    between atoms: _9  and  _12
REMARK    6  A    between atoms: _15  and  _17
REMARK    7  A    between atoms: _17  and  _18
REMARK    8  A    between atoms: _17  and  _20
REMARK    9  A    between atoms: _20  and  _21
REMARK   10  A    between atoms: _23  and  _25
REMARK   11  A    between atoms: _25  and  _26
REMARK   12  A    between atoms: _25  and  _28
REMARK   13  A    between atoms: _28  and  _29
REMARK   14  A    between atoms: _29  and  _30
REMARK   15  A    between atoms: _30  and  _31
REMARK   16  A    between atoms: _40  and  _42
REMARK   17  A    between atoms: _42  and  _43
REMARK   18  A    between atoms: _45  and  _47
REMARK   19  A    between atoms: _47  and  _48
REMARK   20  A    between atoms: _47  and  _50
REMARK   21  A    between atoms: _50  and  _51
REMARK   22  A    between atoms: _53  and  _55
REMARK   23  A    between atoms: _55  and  _56
REMARK   24  A    between atoms: _59  and  _61
REMARK   25  A    between atoms: _61  and  _62
REMARK   26  A    between atoms: _61  and  _64
REMARK   27  A    between atoms: _64  and  _65
REMARK   28  A    between atoms: _65  and  _66
REMARK   29  A    between atoms: _66  and  _67
REMARK   30  A    between atoms: _67  and  _68
REMARK   31  A    between atoms: _72  and  _74
REMARK   32  A    between atoms: _74  and  _75
REMARK   33  A    between atoms: _74  and  _77
REMARK   34  A    between atoms: _77  and  _78
REMARK   35  A    between atoms: _81  and  _83
REMARK   36  A    between atoms: _83  and  _84
REMARK   37  A    between atoms: _83  and  _86
REMARK   38  A    between atoms: _86  and  _87
REMARK   39  A    between atoms: _87  and  _88
REMARK   40  A    between atoms: _93  and  _95
REMARK   41  A    between atoms: _95  and  _96
REMARK   42  A    between atoms: _95  and  _98
REMARK   43  A    between atoms: _98  and  _99
REMARK   44  A    between atoms: _102  and  _104
REMARK   45  A    between atoms: _104  and  _105
REMARK   46  A    between atoms: _104  and  _107
REMARK   47  A    between atoms: _107  and  _108
REMARK   48  A    between atoms: _111  and  _113
REMARK   49  A    between atoms: _113  and  _114
REMARK   50  A    between atoms: _116  and  _118
REMARK   51  A    between atoms: _118  and  _119
REMARK   52  A    between atoms: _118  and  _121
REMARK   53  A    between atoms: _123  and  _125
REMARK   54  A    between atoms: _125  and  _126
REMARK   55  A    between atoms: _128  and  _130
REMARK   56  A    between atoms: _130  and  _131
REMARK   57  A    between atoms: _130  and  _133
REMARK   58  A    between atoms: _133  and  _134
REMARK   59  A    between atoms: _134  and  _135
REMARK   60  A    between atoms: _135  and  _136
REMARK   61  A    between atoms: _145  and  _147
REMARK   62  A    between atoms: _147  and  _148
REMARK   63  A    between atoms: _150  and  _152
REMARK   64  A    between atoms: _152  and  _153
REMARK   65  A    between atoms: _155  and  _157
REMARK   66  A    between atoms: _157  and  _158
REMARK   67  A    between atoms: _157  and  _160
REMARK   68  A    between atoms: _160  and  _161
REMARK   69  A    between atoms: _171  and  _173
REMARK   70  A    between atoms: _173  and  _174
REMARK   71  A    between atoms: _173  and  _176
REMARK   72  A    between atoms: _176  and  _177
REMARK   73  A    between atoms: _179  and  _181
REMARK   74  A    between atoms: _181  and  _182
REMARK   75  A    between atoms: _181  and  _184
REMARK   76  A    between atoms: _184  and  _185
REMARK   77  A    between atoms: _190  and  _191
REMARK   78  A    between atoms: _193  and  _195
REMARK   79  A    between atoms: _195  and  _196
REMARK   80  A    between atoms: _195  and  _198
REMARK   81  A    between atoms: _198  and  _199
REMARK   82  A    between atoms: _204  and  _205
REMARK   83  A    between atoms: _207  and  _209
REMARK   84  A    between atoms: _209  and  _210
REMARK   85  A    between atoms: _209  and  _212
REMARK   86  A    between atoms: _212  and  _213
REMARK   87  A    between atoms: _218  and  _219
REMARK   88  A    between atoms: _221  and  _223
REMARK   89  A    between atoms: _223  and  _224
REMARK   90  A    between atoms: _223  and  _226
REMARK   91  A    between atoms: _226  and  _227
REMARK   92  A    between atoms: _230  and  _232
REMARK   93  A    between atoms: _232  and  _233
REMARK   94  A    between atoms: _232  and  _235
REMARK   95  A    between atoms: _235  and  _236
REMARK   96  A    between atoms: _236  and  _237
REMARK   97  A    between atoms: _237  and  _238
REMARK   98  A    between atoms: _238  and  _239
REMARK   99  A    between atoms: _243  and  _245
REMARK  100  A    between atoms: _245  and  _246
REMARK  101  A    between atoms: _248  and  _250
REMARK  102  A    between atoms: _250  and  _251
REMARK  103  A    between atoms: _254  and  _255
REMARK  104  A    between atoms: _260  and  _262
REMARK  105  A    between atoms: _262  and  _263
REMARK  106  A    between atoms: _265  and  _267
REMARK  107  A    between atoms: _267  and  _268
REMARK  108  A    between atoms: _267  and  _270
REMARK  109  A    between atoms: _270  and  _271
REMARK  110  A    between atoms: _276  and  _278
REMARK  111  A    between atoms: _278  and  _279
REMARK  112  A    between atoms: _278  and  _281
REMARK  113  A    between atoms: _281  and  _282
REMARK  114  A    between atoms: _282  and  _283
REMARK  115  A    between atoms: _286  and  _288
REMARK  116  A    between atoms: _288  and  _289
REMARK  117  A    between atoms: _288  and  _291
REMARK  118  A    between atoms: _291  and  _292
REMARK  119  A    between atoms: _292  and  _293
REMARK  120  A    between atoms: _297  and  _298
REMARK  121  A    between atoms: _303  and  _305
REMARK  122  A    between atoms: _305  and  _306
REMARK  123  A    between atoms: _305  and  _308
REMARK  124  A    between atoms: _311  and  _313
REMARK  125  A    between atoms: _313  and  _314
REMARK  126  A    between atoms: _313  and  _316
REMARK  127  A    between atoms: _316  and  _317
REMARK  128  A    between atoms: _317  and  _318
REMARK  129  A    between atoms: _320  and  _322
REMARK  130  A    between atoms: _322  and  _323
REMARK  131  A    between atoms: _322  and  _325
REMARK  132  A    between atoms: _325  and  _326
REMARK  133  A    between atoms: _328  and  _330
REMARK  134  A    between atoms: _330  and  _331
REMARK  135  A    between atoms: _333  and  _335
REMARK  136  A    between atoms: _335  and  _336
REMARK  137  A    between atoms: _335  and  _338
REMARK  138  A    between atoms: _338  and  _339
REMARK  139  A    between atoms: _339  and  _340
REMARK  140  A    between atoms: _340  and  _341
REMARK  141  A    between atoms: _341  and  _342
REMARK  142  A    between atoms: _346  and  _348
REMARK  143  A    between atoms: _348  and  _349
REMARK  144  A    between atoms: _348  and  _351
REMARK  145  A    between atoms: _351  and  _352
REMARK  146  A    between atoms: _355  and  _357
REMARK  147  A    between atoms: _357  and  _358
REMARK  148  A    between atoms: _357  and  _360
REMARK  149  A    between atoms: _363  and  _365
REMARK  150  A    between atoms: _365  and  _366
REMARK  151  A    between atoms: _365  and  _368
REMARK  152  A    between atoms: _368  and  _369
REMARK  153  A    between atoms: _375  and  _377
REMARK  154  A    between atoms: _377  and  _378
REMARK  155  A    between atoms: _377  and  _380
REMARK  156  A    between atoms: _380  and  _381
REMARK  157  A    between atoms: _386  and  _387
REMARK  158  A    between atoms: _389  and  _391
REMARK  159  A    between atoms: _391  and  _392
REMARK  160  A    between atoms: _391  and  _394
REMARK  161  A    between atoms: _394  and  _395
REMARK  162  A    between atoms: _398  and  _400
REMARK  163  A    between atoms: _400  and  _401
REMARK  164  A    between atoms: _400  and  _403
REMARK  165  A    between atoms: _403  and  _404
REMARK  166  A    between atoms: _407  and  _409
REMARK  167  A    between atoms: _409  and  _410
REMARK  168  A    between atoms: _409  and  _412
REMARK  169  A    between atoms: _414  and  _416
REMARK  170  A    between atoms: _416  and  _417
REMARK  171  A    between atoms: _416  and  _419
REMARK  172  A    between atoms: _419  and  _420
REMARK  173  A    between atoms: _423  and  _425
REMARK  174  A    between atoms: _425  and  _426
REMARK  175  A    between atoms: _425  and  _428
REMARK  176  A    between atoms: _428  and  _429
REMARK  177  A    between atoms: _432  and  _434
REMARK  178  A    between atoms: _434  and  _435
REMARK  179  A    between atoms: _437  and  _439
REMARK  180  A    between atoms: _439  and  _440
REMARK  181  A    between atoms: _439  and  _442
REMARK  182  A    between atoms: _442  and  _443
REMARK  183  A    between atoms: _443  and  _444
REMARK  184  A    between atoms: _447  and  _449
REMARK  185  A    between atoms: _449  and  _450
REMARK  186  A    between atoms: _449  and  _452
REMARK  187  A    between atoms: _452  and  _453
REMARK  188  A    between atoms: _455  and  _457
REMARK  189  A    between atoms: _457  and  _458
REMARK  190  A    between atoms: _457  and  _460
REMARK  191  A    between atoms: _460  and  _461
REMARK  192  A    between atoms: _461  and  _462
REMARK  193  A    between atoms: _462  and  _463
REMARK  194  A    between atoms: _472  and  _474
REMARK  195  A    between atoms: _474  and  _475
REMARK  196  A    between atoms: _474  and  _477
REMARK  197  A    between atoms: _477  and  _478
REMARK  198  A    between atoms: _481  and  _483
REMARK  199  A    between atoms: _483  and  _484
REMARK  200  A    between atoms: _483  and  _486
REMARK  201  A    between atoms: _486  and  _487
REMARK  202  A    between atoms: _490  and  _492
REMARK  203  A    between atoms: _492  and  _493
REMARK  204  A    between atoms: _492  and  _495
REMARK  205  A    between atoms: _495  and  _496
REMARK  206  A    between atoms: _496  and  _497
REMARK  207  A    between atoms: _497  and  _498
REMARK  208  A    between atoms: _507  and  _509
REMARK  209  A    between atoms: _509  and  _510
REMARK  210  A    between atoms: _509  and  _512
REMARK  211  A    between atoms: _515  and  _517
REMARK  212  A    between atoms: _517  and  _518
REMARK  213  A    between atoms: _517  and  _520
REMARK  214  A    between atoms: _520  and  _521
REMARK  215  A    between atoms: _524  and  _526
REMARK  216  A    between atoms: _526  and  _527
REMARK  217  A    between atoms: _526  and  _529
REMARK  218  A    between atoms: _529  and  _530
REMARK  219  A    between atoms: _530  and  _531
REMARK  220  A    between atoms: _531  and  _532
REMARK  221  A    between atoms: _532  and  _533
REMARK  222  A    between atoms: _537  and  _539
REMARK  223  A    between atoms: _539  and  _540
REMARK  224  A    between atoms: _539  and  _542
REMARK  225  A    between atoms: _542  and  _543
REMARK  226  A    between atoms: _543  and  _544
REMARK  227  A    between atoms: _546  and  _548
REMARK  228  A    between atoms: _548  and  _549
REMARK  229  A    between atoms: _548  and  _551
REMARK  230  A    between atoms: _554  and  _556
REMARK  231  A    between atoms: _556  and  _557
REMARK  232  A    between atoms: _556  and  _559
REMARK  233  A    between atoms: _559  and  _560
REMARK  234  A    between atoms: _570  and  _572
REMARK  235  A    between atoms: _572  and  _573
REMARK  236  A    between atoms: _572  and  _575
REMARK  237  A    between atoms: _575  and  _576
REMARK  238  A    between atoms: _576  and  _577
REMARK  239  A    between atoms: _577  and  _578
REMARK  240  A    between atoms: _578  and  _579
REMARK  241  A    between atoms: _583  and  _585
REMARK  242  A    between atoms: _585  and  _586
REMARK  243  A    between atoms: _585  and  _588
REMARK  244  A    between atoms: _588  and  _589
REMARK  245  A    between atoms: _592  and  _594
REMARK  246  A    between atoms: _594  and  _595
REMARK  247  A    between atoms: _594  and  _597
REMARK  248  A    between atoms: _597  and  _598
REMARK  249  A    between atoms: _603  and  _604
REMARK                            x       y       z     vdW  Elec       q    Type
REMARK                         _______ _______ _______ _____ _____    ______ ____
ROOT
ATOM      1  O   HOH     1       4.967  -1.069  48.760  0.00  0.00    +0.000 OA
ENDROOT
TORSDOF 0
REMARK  Name = ../refined-set-2016/3p8z/3p8z_pocket.pdb
REMARK  249 active torsions:
REMARK  status: ('A' for Active; 'I' for Inactive)
REMARK    1  A    between atoms: _1  and  _3
REMARK    2  A    between atoms: _3  and  _4
REMARK    3  A    between atoms: _7  and  _9
REMARK    4  A    between atoms: _9  and  _10
REMARK    5  A    between atoms: _9  and  _12
REMARK    6  A    between atoms: _15  and  _17
REMARK    7  A    between atoms: _17  and  _18
REMARK    8  A    between atoms: _17  and  _20
REMARK    9  A    between atoms: _20  and  _21
REMARK   10  A    between atoms: _23  and  _25
REMARK   11  A    between atoms: _25  and  _26
REMARK   12  A    between atoms: _25  and  _28
REMARK   13  A    between atoms: _28  and  _29
REMARK   14  A    between atoms: _29  and  _30
REMARK   15  A    between atoms: _30  and  _31
REMARK   16  A    between atoms: _40  and  _42
REMARK   17  A    between atoms: _42  and  _43
REMARK   18  A    between atoms: _45  and  _47
REMARK   19  A    between atoms: _47  and  _48
REMARK   20  A    between atoms: _47  and  _50
REMARK   21  A    between atoms: _50  and  _51
REMARK   22  A    between atoms: _53  and  _55
REMARK   23  A    between atoms: _55  and  _56
REMARK   24  A    between atoms: _59  and  _61
REMARK   25  A    between atoms: _61  and  _62
REMARK   26  A    between atoms: _61  and  _64
REMARK   27  A    between atoms: _64  and  _65
REMARK   28  A    between atoms: _65  and  _66
REMARK   29  A    between atoms: _66  and  _67
REMARK   30  A    between atoms: _67  and  _68
REMARK   31  A    between atoms: _72  and  _74
REMARK   32  A    between atoms: _74  and  _75
REMARK   33  A    between atoms: _74  and  _77
REMARK   34  A    between atoms: _77  and  _78
REMARK   35  A    between atoms: _81  and  _83
REMARK   36  A    between atoms: _83  and  _84
REMARK   37  A    between atoms: _83  and  _86
REMARK   38  A    between atoms: _86  and  _87
REMARK   39  A    between atoms: _87  and  _88
REMARK   40  A    between atoms: _93  and  _95
REMARK   41  A    between atoms: _95  and  _96
REMARK   42  A    between atoms: _95  and  _98
REMARK   43  A    between atoms: _98  and  _99
REMARK   44  A    between atoms: _102  and  _104
REMARK   45  A    between atoms: _104  and  _105
REMARK   46  A    between atoms: _104  and  _107
REMARK   47  A    between atoms: _107  and  _108
REMARK   48  A    between atoms: _111  and  _113
REMARK   49  A    between atoms: _113  and  _114
REMARK   50  A    between atoms: _116  and  _118
REMARK   51  A    between atoms: _118  and  _119
REMARK   52  A    between atoms: _118  and  _121
REMARK   53  A    between atoms: _123  and  _125
REMARK   54  A    between atoms: _125  and  _126
REMARK   55  A    between atoms: _128  and  _130
REMARK   56  A    between atoms: _130  and  _131
REMARK   57  A    between atoms: _130  and  _133
REMARK   58  A    between atoms: _133  and  _134
REMARK   59  A    between atoms: _134  and  _135
REMARK   60  A    between atoms: _135  and  _136
REMARK   61  A    between atoms: _145  and  _147
REMARK   62  A    between atoms: _147  and  _148
REMARK   63  A    between atoms: _150  and  _152
REMARK   64  A    between atoms: _152  and  _153
REMARK   65  A    between atoms: _155  and  _157
REMARK   66  A    between atoms: _157  and  _158
REMARK   67  A    between atoms: _157  and  _160
REMARK   68  A    between atoms: _160  and  _161
REMARK   69  A    between atoms: _171  and  _173
REMARK   70  A    between atoms: _173  and  _174
REMARK   71  A    between atoms: _173  and  _176
REMARK   72  A    between atoms: _176  and  _177
REMARK   73  A    between atoms: _179  and  _181
REMARK   74  A    between atoms: _181  and  _182
REMARK   75  A    between atoms: _181  and  _184
REMARK   76  A    between atoms: _184  and  _185
REMARK   77  A    between atoms: _190  and  _191
REMARK   78  A    between atoms: _193  and  _195
REMARK   79  A    between atoms: _195  and  _196
REMARK   80  A    between atoms: _195  and  _198
REMARK   81  A    between atoms: _198  and  _199
REMARK   82  A    between atoms: _204  and  _205
REMARK   83  A    between atoms: _207  and  _209
REMARK   84  A    between atoms: _209  and  _210
REMARK   85  A    between atoms: _209  and  _212
REMARK   86  A    between atoms: _212  and  _213
REMARK   87  A    between atoms: _218  and  _219
REMARK   88  A    between atoms: _221  and  _223
REMARK   89  A    between atoms: _223  and  _224
REMARK   90  A    between atoms: _223  and  _226
REMARK   91  A    between atoms: _226  and  _227
REMARK   92  A    between atoms: _230  and  _232
REMARK   93  A    between atoms: _232  and  _233
REMARK   94  A    between atoms: _232  and  _235
REMARK   95  A    between atoms: _235  and  _236
REMARK   96  A    between atoms: _236  and  _237
REMARK   97  A    between atoms: _237  and  _238
REMARK   98  A    between atoms: _238  and  _239
REMARK   99  A    between atoms: _243  and  _245
REMARK  100  A    between atoms: _245  and  _246
REMARK  101  A    between atoms: _248  and  _250
REMARK  102  A    between atoms: _250  and  _251
REMARK  103  A    between atoms: _254  and  _255
REMARK  104  A    between atoms: _260  and  _262
REMARK  105  A    between atoms: _262  and  _263
REMARK  106  A    between atoms: _265  and  _267
REMARK  107  A    between atoms: _267  and  _268
REMARK  108  A    between atoms: _267  and  _270
REMARK  109  A    between atoms: _270  and  _271
REMARK  110  A    between atoms: _276  and  _278
REMARK  111  A    between atoms: _278  and  _279
REMARK  112  A    between atoms: _278  and  _281
REMARK  113  A    between atoms: _281  and  _282
REMARK  114  A    between atoms: _282  and  _283
REMARK  115  A    between atoms: _286  and  _288
REMARK  116  A    between atoms: _288  and  _289
REMARK  117  A    between atoms: _288  and  _291
REMARK  118  A    between atoms: _291  and  _292
REMARK  119  A    between atoms: _292  and  _293
REMARK  120  A    between atoms: _297  and  _298
REMARK  121  A    between atoms: _303  and  _305
REMARK  122  A    between atoms: _305  and  _306
REMARK  123  A    between atoms: _305  and  _308
REMARK  124  A    between atoms: _311  and  _313
REMARK  125  A    between atoms: _313  and  _314
REMARK  126  A    between atoms: _313  and  _316
REMARK  127  A    between atoms: _316  and  _317
REMARK  128  A    between atoms: _317  and  _318
REMARK  129  A    between atoms: _320  and  _322
REMARK  130  A    between atoms: _322  and  _323
REMARK  131  A    between atoms: _322  and  _325
REMARK  132  A    between atoms: _325  and  _326
REMARK  133  A    between atoms: _328  and  _330
REMARK  134  A    between atoms: _330  and  _331
REMARK  135  A    between atoms: _333  and  _335
REMARK  136  A    between atoms: _335  and  _336
REMARK  137  A    between atoms: _335  and  _338
REMARK  138  A    between atoms: _338  and  _339
REMARK  139  A    between atoms: _339  and  _340
REMARK  140  A    between atoms: _340  and  _341
REMARK  141  A    between atoms: _341  and  _342
REMARK  142  A    between atoms: _346  and  _348
REMARK  143  A    between atoms: _348  and  _349
REMARK  144  A    between atoms: _348  and  _351
REMARK  145  A    between atoms: _351  and  _352
REMARK  146  A    between atoms: _355  and  _357
REMARK  147  A    between atoms: _357  and  _358
REMARK  148  A    between atoms: _357  and  _360
REMARK  149  A    between atoms: _363  and  _365
REMARK  150  A    between atoms: _365  and  _366
REMARK  151  A    between atoms: _365  and  _368
REMARK  152  A    between atoms: _368  and  _369
REMARK  153  A    between atoms: _375  and  _377
REMARK  154  A    between atoms: _377  and  _378
REMARK  155  A    between atoms: _377  and  _380
REMARK  156  A    between atoms: _380  and  _381
REMARK  157  A    between atoms: _386  and  _387
REMARK  158  A    between atoms: _389  and  _391
REMARK  159  A    between atoms: _391  and  _392
REMARK  160  A    between atoms: _391  and  _394
REMARK  161  A    between atoms: _394  and  _395
REMARK  162  A    between atoms: _398  and  _400
REMARK  163  A    between atoms: _400  and  _401
REMARK  164  A    between atoms: _400  and  _403
REMARK  165  A    between atoms: _403  and  _404
REMARK  166  A    between atoms: _407  and  _409
REMARK  167  A    between atoms: _409  and  _410
REMARK  168  A    between atoms: _409  and  _412
REMARK  169  A    between atoms: _414  and  _416
REMARK  170  A    between atoms: _416  and  _417
REMARK  171  A    between atoms: _416  and  _419
REMARK  172  A    between atoms: _419  and  _420
REMARK  173  A    between atoms: _423  and  _425
REMARK  174  A    between atoms: _425  and  _426
REMARK  175  A    between atoms: _425  and  _428
REMARK  176  A    between atoms: _428  and  _429
REMARK  177  A    between atoms: _432  and  _434
REMARK  178  A    between atoms: _434  and  _435
REMARK  179  A    between atoms: _437  and  _439
REMARK  180  A    between atoms: _439  and  _440
REMARK  181  A    between atoms: _439  and  _442
REMARK  182  A    between atoms: _442  and  _443
REMARK  183  A    between atoms: _443  and  _444
REMARK  184  A    between atoms: _447  and  _449
REMARK  185  A    between atoms: _449  and  _450
REMARK  186  A    between atoms: _449  and  _452
REMARK  187  A    between atoms: _452  and  _453
REMARK  188  A    between atoms: _455  and  _457
REMARK  189  A    between atoms: _457  and  _458
REMARK  190  A    between atoms: _457  and  _460
REMARK  191  A    between atoms: _460  and  _461
REMARK  192  A    between atoms: _461  and  _462
REMARK  193  A    between atoms: _462  and  _463
REMARK  194  A    between atoms: _472  and  _474
REMARK  195  A    between atoms: _474  and  _475
REMARK  196  A    between atoms: _474  and  _477
REMARK  197  A    between atoms: _477  and  _478
REMARK  198  A    between atoms: _481  and  _483
REMARK  199  A    between atoms: _483  and  _484
REMARK  200  A    between atoms: _483  and  _486
REMARK  201  A    between atoms: _486  and  _487
REMARK  202  A    between atoms: _490  and  _492
REMARK  203  A    between atoms: _492  and  _493
REMARK  204  A    between atoms: _492  and  _495
REMARK  205  A    between atoms: _495  and  _496
REMARK  206  A    between atoms: _496  and  _497
REMARK  207  A    between atoms: _497  and  _498
REMARK  208  A    between atoms: _507  and  _509
REMARK  209  A    between atoms: _509  and  _510
REMARK  210  A    between atoms: _509  and  _512
REMARK  211  A    between atoms: _515  and  _517
REMARK  212  A    between atoms: _517  and  _518
REMARK  213  A    between atoms: _517  and  _520
REMARK  214  A    between atoms: _520  and  _521
REMARK  215  A    between atoms: _524  and  _526
REMARK  216  A    between atoms: _526  and  _527
REMARK  217  A    between atoms: _526  and  _529
REMARK  218  A    between atoms: _529  and  _530
REMARK  219  A    between atoms: _530  and  _531
REMARK  220  A    between atoms: _531  and  _532
REMARK  221  A    between atoms: _532  and  _533
REMARK  222  A    between atoms: _537  and  _539
REMARK  223  A    between atoms: _539  and  _540
REMARK  224  A    between atoms: _539  and  _542
REMARK  225  A    between atoms: _542  and  _543
REMARK  226  A    between atoms: _543  and  _544
REMARK  227  A    between atoms: _546  and  _548
REMARK  228  A    between atoms: _548  and  _549
REMARK  229  A    between atoms: _548  and  _551
REMARK  230  A    between atoms: _554  and  _556
REMARK  231  A    between atoms: _556  and  _557
REMARK  232  A    between atoms: _556  and  _559
REMARK  233  A    between atoms: _559  and  _560
REMARK  234  A    between atoms: _570  and  _572
REMARK  235  A    between atoms: _572  and  _573
REMARK  236  A    between atoms: _572  and  _575
REMARK  237  A    between atoms: _575  and  _576
REMARK  238  A    between atoms: _576  and  _577
REMARK  239  A    between atoms: _577  and  _578
REMARK  240  A    between atoms: _578  and  _579
REMARK  241  A    between atoms: _583  and  _585
REMARK  242  A    between atoms: _585  and  _586
REMARK  243  A    between atoms: _585  and  _588
REMARK  244  A    between atoms: _588  and  _589
REMARK  245  A    between atoms: _592  and  _594
REMARK  246  A    between atoms: _594  and  _595
REMARK  247  A    between atoms: _594  and  _597
REMARK  248  A    between atoms: _597  and  _598
REMARK  249  A    between atoms: _603  and  _604
REMARK                            x       y       z     vdW  Elec       q    Type
REMARK                         _______ _______ _______ _____ _____    ______ ____
ROOT
ATOM      1  O   HOH     1       0.469   2.701  45.513  0.00  0.00    +0.000 OA
ENDROOT
TORSDOF 0
REMARK  Name = ../refined-set-2016/3p8z/3p8z_pocket.pdb
REMARK  249 active torsions:
REMARK  status: ('A' for Active; 'I' for Inactive)
REMARK    1  A    between atoms: _1  and  _3
REMARK    2  A    between atoms: _3  and  _4
REMARK    3  A    between atoms: _7  and  _9
REMARK    4  A    between atoms: _9  and  _10
REMARK    5  A    between atoms: _9  and  _12
REMARK    6  A    between atoms: _15  and  _17
REMARK    7  A    between atoms: _17  and  _18
REMARK    8  A    between atoms: _17  and  _20
REMARK    9  A    between atoms: _20  and  _21
REMARK   10  A    between atoms: _23  and  _25
REMARK   11  A    between atoms: _25  and  _26
REMARK   12  A    between atoms: _25  and  _28
REMARK   13  A    between atoms: _28  and  _29
REMARK   14  A    between atoms: _29  and  _30
REMARK   15  A    between atoms: _30  and  _31
REMARK   16  A    between atoms: _40  and  _42
REMARK   17  A    between atoms: _42  and  _43
REMARK   18  A    between atoms: _45  and  _47
REMARK   19  A    between atoms: _47  and  _48
REMARK   20  A    between atoms: _47  and  _50
REMARK   21  A    between atoms: _50  and  _51
REMARK   22  A    between atoms: _53  and  _55
REMARK   23  A    between atoms: _55  and  _56
REMARK   24  A    between atoms: _59  and  _61
REMARK   25  A    between atoms: _61  and  _62
REMARK   26  A    between atoms: _61  and  _64
REMARK   27  A    between atoms: _64  and  _65
REMARK   28  A    between atoms: _65  and  _66
REMARK   29  A    between atoms: _66  and  _67
REMARK   30  A    between atoms: _67  and  _68
REMARK   31  A    between atoms: _72  and  _74
REMARK   32  A    between atoms: _74  and  _75
REMARK   33  A    between atoms: _74  and  _77
REMARK   34  A    between atoms: _77  and  _78
REMARK   35  A    between atoms: _81  and  _83
REMARK   36  A    between atoms: _83  and  _84
REMARK   37  A    between atoms: _83  and  _86
REMARK   38  A    between atoms: _86  and  _87
REMARK   39  A    between atoms: _87  and  _88
REMARK   40  A    between atoms: _93  and  _95
REMARK   41  A    between atoms: _95  and  _96
REMARK   42  A    between atoms: _95  and  _98
REMARK   43  A    between atoms: _98  and  _99
REMARK   44  A    between atoms: _102  and  _104
REMARK   45  A    between atoms: _104  and  _105
REMARK   46  A    between atoms: _104  and  _107
REMARK   47  A    between atoms: _107  and  _108
REMARK   48  A    between atoms: _111  and  _113
REMARK   49  A    between atoms: _113  and  _114
REMARK   50  A    between atoms: _116  and  _118
REMARK   51  A    between atoms: _118  and  _119
REMARK   52  A    between atoms: _118  and  _121
REMARK   53  A    between atoms: _123  and  _125
REMARK   54  A    between atoms: _125  and  _126
REMARK   55  A    between atoms: _128  and  _130
REMARK   56  A    between atoms: _130  and  _131
REMARK   57  A    between atoms: _130  and  _133
REMARK   58  A    between atoms: _133  and  _134
REMARK   59  A    between atoms: _134  and  _135
REMARK   60  A    between atoms: _135  and  _136
REMARK   61  A    between atoms: _145  and  _147
REMARK   62  A    between atoms: _147  and  _148
REMARK   63  A    between atoms: _150  and  _152
REMARK   64  A    between atoms: _152  and  _153
REMARK   65  A    between atoms: _155  and  _157
REMARK   66  A    between atoms: _157  and  _158
REMARK   67  A    between atoms: _157  and  _160
REMARK   68  A    between atoms: _160  and  _161
REMARK   69  A    between atoms: _171  and  _173
REMARK   70  A    between atoms: _173  and  _174
REMARK   71  A    between atoms: _173  and  _176
REMARK   72  A    between atoms: _176  and  _177
REMARK   73  A    between atoms: _179  and  _181
REMARK   74  A    between atoms: _181  and  _182
REMARK   75  A    between atoms: _181  and  _184
REMARK   76  A    between atoms: _184  and  _185
REMARK   77  A    between atoms: _190  and  _191
REMARK   78  A    between atoms: _193  and  _195
REMARK   79  A    between atoms: _195  and  _196
REMARK   80  A    between atoms: _195  and  _198
REMARK   81  A    between atoms: _198  and  _199
REMARK   82  A    between atoms: _204  and  _205
REMARK   83  A    between atoms: _207  and  _209
REMARK   84  A    between atoms: _209  and  _210
REMARK   85  A    between atoms: _209  and  _212
REMARK   86  A    between atoms: _212  and  _213
REMARK   87  A    between atoms: _218  and  _219
REMARK   88  A    between atoms: _221  and  _223
REMARK   89  A    between atoms: _223  and  _224
REMARK   90  A    between atoms: _223  and  _226
REMARK   91  A    between atoms: _226  and  _227
REMARK   92  A    between atoms: _230  and  _232
REMARK   93  A    between atoms: _232  and  _233
REMARK   94  A    between atoms: _232  and  _235
REMARK   95  A    between atoms: _235  and  _236
REMARK   96  A    between atoms: _236  and  _237
REMARK   97  A    between atoms: _237  and  _238
REMARK   98  A    between atoms: _238  and  _239
REMARK   99  A    between atoms: _243  and  _245
REMARK  100  A    between atoms: _245  and  _246
REMARK  101  A    between atoms: _248  and  _250
REMARK  102  A    between atoms: _250  and  _251
REMARK  103  A    between atoms: _254  and  _255
REMARK  104  A    between atoms: _260  and  _262
REMARK  105  A    between atoms: _262  and  _263
REMARK  106  A    between atoms: _265  and  _267
REMARK  107  A    between atoms: _267  and  _268
REMARK  108  A    between atoms: _267  and  _270
REMARK  109  A    between atoms: _270  and  _271
REMARK  110  A    between atoms: _276  and  _278
REMARK  111  A    between atoms: _278  and  _279
REMARK  112  A    between atoms: _278  and  _281
REMARK  113  A    between atoms: _281  and  _282
REMARK  114  A    between atoms: _282  and  _283
REMARK  115  A    between atoms: _286  and  _288
REMARK  116  A    between atoms: _288  and  _289
REMARK  117  A    between atoms: _288  and  _291
REMARK  118  A    between atoms: _291  and  _292
REMARK  119  A    between atoms: _292  and  _293
REMARK  120  A    between atoms: _297  and  _298
REMARK  121  A    between atoms: _303  and  _305
REMARK  122  A    between atoms: _305  and  _306
REMARK  123  A    between atoms: _305  and  _308
REMARK  124  A    between atoms: _311  and  _313
REMARK  125  A    between atoms: _313  and  _314
REMARK  126  A    between atoms: _313  and  _316
REMARK  127  A    between atoms: _316  and  _317
REMARK  128  A    between atoms: _317  and  _318
REMARK  129  A    between atoms: _320  and  _322
REMARK  130  A    between atoms: _322  and  _323
REMARK  131  A    between atoms: _322  and  _325
REMARK  132  A    between atoms: _325  and  _326
REMARK  133  A    between atoms: _328  and  _330
REMARK  134  A    between atoms: _330  and  _331
REMARK  135  A    between atoms: _333  and  _335
REMARK  136  A    between atoms: _335  and  _336
REMARK  137  A    between atoms: _335  and  _338
REMARK  138  A    between atoms: _338  and  _339
REMARK  139  A    between atoms: _339  and  _340
REMARK  140  A    between atoms: _340  and  _341
REMARK  141  A    between atoms: _341  and  _342
REMARK  142  A    between atoms: _346  and  _348
REMARK  143  A    between atoms: _348  and  _349
REMARK  144  A    between atoms: _348  and  _351
REMARK  145  A    between atoms: _351  and  _352
REMARK  146  A    between atoms: _355  and  _357
REMARK  147  A    between atoms: _357  and  _358
REMARK  148  A    between atoms: _357  and  _360
REMARK  149  A    between atoms: _363  and  _365
REMARK  150  A    between atoms: _365  and  _366
REMARK  151  A    between atoms: _365  and  _368
REMARK  152  A    between atoms: _368  and  _369
REMARK  153  A    between atoms: _375  and  _377
REMARK  154  A    between atoms: _377  and  _378
REMARK  155  A    between atoms: _377  and  _380
REMARK  156  A    between atoms: _380  and  _381
REMARK  157  A    between atoms: _386  and  _387
REMARK  158  A    between atoms: _389  and  _391
REMARK  159  A    between atoms: _391  and  _392
REMARK  160  A    between atoms: _391  and  _394
REMARK  161  A    between atoms: _394  and  _395
REMARK  162  A    between atoms: _398  and  _400
REMARK  163  A    between atoms: _400  and  _401
REMARK  164  A    between atoms: _400  and  _403
REMARK  165  A    between atoms: _403  and  _404
REMARK  166  A    between atoms: _407  and  _409
REMARK  167  A    between atoms: _409  and  _410
REMARK  168  A    between atoms: _409  and  _412
REMARK  169  A    between atoms: _414  and  _416
REMARK  170  A    between atoms: _416  and  _417
REMARK  171  A    between atoms: _416  and  _419
REMARK  172  A    between atoms: _419  and  _420
REMARK  173  A    between atoms: _423  and  _425
REMARK  174  A    between atoms: _425  and  _426
REMARK  175  A    between atoms: _425  and  _428
REMARK  176  A    between atoms: _428  and  _429
REMARK  177  A    between atoms: _432  and  _434
REMARK  178  A    between atoms: _434  and  _435
REMARK  179  A    between atoms: _437  and  _439
REMARK  180  A    between atoms: _439  and  _440
REMARK  181  A    between atoms: _439  and  _442
REMARK  182  A    between atoms: _442  and  _443
REMARK  183  A    between atoms: _443  and  _444
REMARK  184  A    between atoms: _447  and  _449
REMARK  185  A    between atoms: _449  and  _450
REMARK  186  A    between atoms: _449  and  _452
REMARK  187  A    between atoms: _452  and  _453
REMARK  188  A    between atoms: _455  and  _457
REMARK  189  A    between atoms: _457  and  _458
REMARK  190  A    between atoms: _457  and  _460
REMARK  191  A    between atoms: _460  and  _461
REMARK  192  A    between atoms: _461  and  _462
REMARK  193  A    between atoms: _462  and  _463
REMARK  194  A    between atoms: _472  and  _474
REMARK  195  A    between atoms: _474  and  _475
REMARK  196  A    between atoms: _474  and  _477
REMARK  197  A    between atoms: _477  and  _478
REMARK  198  A    between atoms: _481  and  _483
REMARK  199  A    between atoms: _483  and  _484
REMARK  200  A    between atoms: _483  and  _486
REMARK  201  A    between atoms: _486  and  _487
REMARK  202  A    between atoms: _490  and  _492
REMARK  203  A    between atoms: _492  and  _493
REMARK  204  A    between atoms: _492  and  _495
REMARK  205  A    between atoms: _495  and  _496
REMARK  206  A    between atoms: _496  and  _497
REMARK  207  A    between atoms: _497  and  _498
REMARK  208  A    between atoms: _507  and  _509
REMARK  209  A    between atoms: _509  and  _510
REMARK  210  A    between atoms: _509  and  _512
REMARK  211  A    between atoms: _515  and  _517
REMARK  212  A    between atoms: _517  and  _518
REMARK  213  A    between atoms: _517  and  _520
REMARK  214  A    between atoms: _520  and  _521
REMARK  215  A    between atoms: _524  and  _526
REMARK  216  A    between atoms: _526  and  _527
REMARK  217  A    between atoms: _526  and  _529
REMARK  218  A    between atoms: _529  and  _530
REMARK  219  A    between atoms: _530  and  _531
REMARK  220  A    between atoms: _531  and  _532
REMARK  221  A    between atoms: _532  and  _533
REMARK  222  A    between atoms: _537  and  _539
REMARK  223  A    between atoms: _539  and  _540
REMARK  224  A    between atoms: _539  and  _542
REMARK  225  A    between atoms: _542  and  _543
REMARK  226  A    between atoms: _543  and  _544
REMARK  227  A    between atoms: _546  and  _548
REMARK  228  A    between atoms: _548  and  _549
REMARK  229  A    between atoms: _548  and  _551
REMARK  230  A    between atoms: _554  and  _556
REMARK  231  A    between atoms: _556  and  _557
REMARK  232  A    between atoms: _556  and  _559
REMARK  233  A    between atoms: _559  and  _560
REMARK  234  A    between atoms: _570  and  _572
REMARK  235  A    between atoms: _572  and  _573
REMARK  236  A    between atoms: _572  and  _575
REMARK  237  A    between atoms: _575  and  _576
REMARK  238  A    between atoms: _576  and  _577
REMARK  239  A    between atoms: _577  and  _578
REMARK  240  A    between atoms: _578  and  _579
REMARK  241  A    between atoms: _583  and  _585
REMARK  242  A    between atoms: _585  and  _586
REMARK  243  A    between atoms: _585  and  _588
REMARK  244  A    between atoms: _588  and  _589
REMARK  245  A    between atoms: _592  and  _594
REMARK  246  A    between atoms: _594  and  _595
REMARK  247  A    between atoms: _594  and  _597
REMARK  248  A    between atoms: _597  and  _598
REMARK  249  A    between atoms: _603  and  _604
REMARK                            x       y       z     vdW  Elec       q    Type
REMARK                         _______ _______ _______ _____ _____    ______ ____
ROOT
ATOM      1  O   HOH     1      10.418   8.809  37.851  0.00  0.00    +0.000 OA
ENDROOT
TORSDOF 0
REMARK  Name = ../refined-set-2016/3p8z/3p8z_pocket.pdb
REMARK  249 active torsions:
REMARK  status: ('A' for Active; 'I' for Inactive)
REMARK    1  A    between atoms: _1  and  _3
REMARK    2  A    between atoms: _3  and  _4
REMARK    3  A    between atoms: _7  and  _9
REMARK    4  A    between atoms: _9  and  _10
REMARK    5  A    between atoms: _9  and  _12
REMARK    6  A    between atoms: _15  and  _17
REMARK    7  A    between atoms: _17  and  _18
REMARK    8  A    between atoms: _17  and  _20
REMARK    9  A    between atoms: _20  and  _21
REMARK   10  A    between atoms: _23  and  _25
REMARK   11  A    between atoms: _25  and  _26
REMARK   12  A    between atoms: _25  and  _28
REMARK   13  A    between atoms: _28  and  _29
REMARK   14  A    between atoms: _29  and  _30
REMARK   15  A    between atoms: _30  and  _31
REMARK   16  A    between atoms: _40  and  _42
REMARK   17  A    between atoms: _42  and  _43
REMARK   18  A    between atoms: _45  and  _47
REMARK   19  A    between atoms: _47  and  _48
REMARK   20  A    between atoms: _47  and  _50
REMARK   21  A    between atoms: _50  and  _51
REMARK   22  A    between atoms: _53  and  _55
REMARK   23  A    between atoms: _55  and  _56
REMARK   24  A    between atoms: _59  and  _61
REMARK   25  A    between atoms: _61  and  _62
REMARK   26  A    between atoms: _61  and  _64
REMARK   27  A    between atoms: _64  and  _65
REMARK   28  A    between atoms: _65  and  _66
REMARK   29  A    between atoms: _66  and  _67
REMARK   30  A    between atoms: _67  and  _68
REMARK   31  A    between atoms: _72  and  _74
REMARK   32  A    between atoms: _74  and  _75
REMARK   33  A    between atoms: _74  and  _77
REMARK   34  A    between atoms: _77  and  _78
REMARK   35  A    between atoms: _81  and  _83
REMARK   36  A    between atoms: _83  and  _84
REMARK   37  A    between atoms: _83  and  _86
REMARK   38  A    between atoms: _86  and  _87
REMARK   39  A    between atoms: _87  and  _88
REMARK   40  A    between atoms: _93  and  _95
REMARK   41  A    between atoms: _95  and  _96
REMARK   42  A    between atoms: _95  and  _98
REMARK   43  A    between atoms: _98  and  _99
REMARK   44  A    between atoms: _102  and  _104
REMARK   45  A    between atoms: _104  and  _105
REMARK   46  A    between atoms: _104  and  _107
REMARK   47  A    between atoms: _107  and  _108
REMARK   48  A    between atoms: _111  and  _113
REMARK   49  A    between atoms: _113  and  _114
REMARK   50  A    between atoms: _116  and  _118
REMARK   51  A    between atoms: _118  and  _119
REMARK   52  A    between atoms: _118  and  _121
REMARK   53  A    between atoms: _123  and  _125
REMARK   54  A    between atoms: _125  and  _126
REMARK   55  A    between atoms: _128  and  _130
REMARK   56  A    between atoms: _130  and  _131
REMARK   57  A    between atoms: _130  and  _133
REMARK   58  A    between atoms: _133  and  _134
REMARK   59  A    between atoms: _134  and  _135
REMARK   60  A    between atoms: _135  and  _136
REMARK   61  A    between atoms: _145  and  _147
REMARK   62  A    between atoms: _147  and  _148
REMARK   63  A    between atoms: _150  and  _152
REMARK   64  A    between atoms: _152  and  _153
REMARK   65  A    between atoms: _155  and  _157
REMARK   66  A    between atoms: _157  and  _158
REMARK   67  A    between atoms: _157  and  _160
REMARK   68  A    between atoms: _160  and  _161
REMARK   69  A    between atoms: _171  and  _173
REMARK   70  A    between atoms: _173  and  _174
REMARK   71  A    between atoms: _173  and  _176
REMARK   72  A    between atoms: _176  and  _177
REMARK   73  A    between atoms: _179  and  _181
REMARK   74  A    between atoms: _181  and  _182
REMARK   75  A    between atoms: _181  and  _184
REMARK   76  A    between atoms: _184  and  _185
REMARK   77  A    between atoms: _190  and  _191
REMARK   78  A    between atoms: _193  and  _195
REMARK   79  A    between atoms: _195  and  _196
REMARK   80  A    between atoms: _195  and  _198
REMARK   81  A    between atoms: _198  and  _199
REMARK   82  A    between atoms: _204  and  _205
REMARK   83  A    between atoms: _207  and  _209
REMARK   84  A    between atoms: _209  and  _210
REMARK   85  A    between atoms: _209  and  _212
REMARK   86  A    between atoms: _212  and  _213
REMARK   87  A    between atoms: _218  and  _219
REMARK   88  A    between atoms: _221  and  _223
REMARK   89  A    between atoms: _223  and  _224
REMARK   90  A    between atoms: _223  and  _226
REMARK   91  A    between atoms: _226  and  _227
REMARK   92  A    between atoms: _230  and  _232
REMARK   93  A    between atoms: _232  and  _233
REMARK   94  A    between atoms: _232  and  _235
REMARK   95  A    between atoms: _235  and  _236
REMARK   96  A    between atoms: _236  and  _237
REMARK   97  A    between atoms: _237  and  _238
REMARK   98  A    between atoms: _238  and  _239
REMARK   99  A    between atoms: _243  and  _245
REMARK  100  A    between atoms: _245  and  _246
REMARK  101  A    between atoms: _248  and  _250
REMARK  102  A    between atoms: _250  and  _251
REMARK  103  A    between atoms: _254  and  _255
REMARK  104  A    between atoms: _260  and  _262
REMARK  105  A    between atoms: _262  and  _263
REMARK  106  A    between atoms: _265  and  _267
REMARK  107  A    between atoms: _267  and  _268
REMARK  108  A    between atoms: _267  and  _270
REMARK  109  A    between atoms: _270  and  _271
REMARK  110  A    between atoms: _276  and  _278
REMARK  111  A    between atoms: _278  and  _279
REMARK  112  A    between atoms: _278  and  _281
REMARK  113  A    between atoms: _281  and  _282
REMARK  114  A    between atoms: _282  and  _283
REMARK  115  A    between atoms: _286  and  _288
REMARK  116  A    between atoms: _288  and  _289
REMARK  117  A    between atoms: _288  and  _291
REMARK  118  A    between atoms: _291  and  _292
REMARK  119  A    between atoms: _292  and  _293
REMARK  120  A    between atoms: _297  and  _298
REMARK  121  A    between atoms: _303  and  _305
REMARK  122  A    between atoms: _305  and  _306
REMARK  123  A    between atoms: _305  and  _308
REMARK  124  A    between atoms: _311  and  _313
REMARK  125  A    between atoms: _313  and  _314
REMARK  126  A    between atoms: _313  and  _316
REMARK  127  A    between atoms: _316  and  _317
REMARK  128  A    between atoms: _317  and  _318
REMARK  129  A    between atoms: _320  and  _322
REMARK  130  A    between atoms: _322  and  _323
REMARK  131  A    between atoms: _322  and  _325
REMARK  132  A    between atoms: _325  and  _326
REMARK  133  A    between atoms: _328  and  _330
REMARK  134  A    between atoms: _330  and  _331
REMARK  135  A    between atoms: _333  and  _335
REMARK  136  A    between atoms: _335  and  _336
REMARK  137  A    between atoms: _335  and  _338
REMARK  138  A    between atoms: _338  and  _339
REMARK  139  A    between atoms: _339  and  _340
REMARK  140  A    between atoms: _340  and  _341
REMARK  141  A    between atoms: _341  and  _342
REMARK  142  A    between atoms: _346  and  _348
REMARK  143  A    between atoms: _348  and  _349
REMARK  144  A    between atoms: _348  and  _351
REMARK  145  A    between atoms: _351  and  _352
REMARK  146  A    between atoms: _355  and  _357
REMARK  147  A    between atoms: _357  and  _358
REMARK  148  A    between atoms: _357  and  _360
REMARK  149  A    between atoms: _363  and  _365
REMARK  150  A    between atoms: _365  and  _366
REMARK  151  A    between atoms: _365  and  _368
REMARK  152  A    between atoms: _368  and  _369
REMARK  153  A    between atoms: _375  and  _377
REMARK  154  A    between atoms: _377  and  _378
REMARK  155  A    between atoms: _377  and  _380
REMARK  156  A    between atoms: _380  and  _381
REMARK  157  A    between atoms: _386  and  _387
REMARK  158  A    between atoms: _389  and  _391
REMARK  159  A    between atoms: _391  and  _392
REMARK  160  A    between atoms: _391  and  _394
REMARK  161  A    between atoms: _394  and  _395
REMARK  162  A    between atoms: _398  and  _400
REMARK  163  A    between atoms: _400  and  _401
REMARK  164  A    between atoms: _400  and  _403
REMARK  165  A    between atoms: _403  and  _404
REMARK  166  A    between atoms: _407  and  _409
REMARK  167  A    between atoms: _409  and  _410
REMARK  168  A    between atoms: _409  and  _412
REMARK  169  A    between atoms: _414  and  _416
REMARK  170  A    between atoms: _416  and  _417
REMARK  171  A    between atoms: _416  and  _419
REMARK  172  A    between atoms: _419  and  _420
REMARK  173  A    between atoms: _423  and  _425
REMARK  174  A    between atoms: _425  and  _426
REMARK  175  A    between atoms: _425  and  _428
REMARK  176  A    between atoms: _428  and  _429
REMARK  177  A    between atoms: _432  and  _434
REMARK  178  A    between atoms: _434  and  _435
REMARK  179  A    between atoms: _437  and  _439
REMARK  180  A    between atoms: _439  and  _440
REMARK  181  A    between atoms: _439  and  _442
REMARK  182  A    between atoms: _442  and  _443
REMARK  183  A    between atoms: _443  and  _444
REMARK  184  A    between atoms: _447  and  _449
REMARK  185  A    between atoms: _449  and  _450
REMARK  186  A    between atoms: _449  and  _452
REMARK  187  A    between atoms: _452  and  _453
REMARK  188  A    between atoms: _455  and  _457
REMARK  189  A    between atoms: _457  and  _458
REMARK  190  A    between atoms: _457  and  _460
REMARK  191  A    between atoms: _460  and  _461
REMARK  192  A    between atoms: _461  and  _462
REMARK  193  A    between atoms: _462  and  _463
REMARK  194  A    between atoms: _472  and  _474
REMARK  195  A    between atoms: _474  and  _475
REMARK  196  A    between atoms: _474  and  _477
REMARK  197  A    between atoms: _477  and  _478
REMARK  198  A    between atoms: _481  and  _483
REMARK  199  A    between atoms: _483  and  _484
REMARK  200  A    between atoms: _483  and  _486
REMARK  201  A    between atoms: _486  and  _487
REMARK  202  A    between atoms: _490  and  _492
REMARK  203  A    between atoms: _492  and  _493
REMARK  204  A    between atoms: _492  and  _495
REMARK  205  A    between atoms: _495  and  _496
REMARK  206  A    between atoms: _496  and  _497
REMARK  207  A    between atoms: _497  and  _498
REMARK  208  A    between atoms: _507  and  _509
REMARK  209  A    between atoms: _509  and  _510
REMARK  210  A    between atoms: _509  and  _512
REMARK  211  A    between atoms: _515  and  _517
REMARK  212  A    between atoms: _517  and  _518
REMARK  213  A    between atoms: _517  and  _520
REMARK  214  A    between atoms: _520  and  _521
REMARK  215  A    between atoms: _524  and  _526
REMARK  216  A    between atoms: _526  and  _527
REMARK  217  A    between atoms: _526  and  _529
REMARK  218  A    between atoms: _529  and  _530
REMARK  219  A    between atoms: _530  and  _531
REMARK  220  A    between atoms: _531  and  _532
REMARK  221  A    between atoms: _532  and  _533
REMARK  222  A    between atoms: _537  and  _539
REMARK  223  A    between atoms: _539  and  _540
REMARK  224  A    between atoms: _539  and  _542
REMARK  225  A    between atoms: _542  and  _543
REMARK  226  A    between atoms: _543  and  _544
REMARK  227  A    between atoms: _546  and  _548
REMARK  228  A    between atoms: _548  and  _549
REMARK  229  A    between atoms: _548  and  _551
REMARK  230  A    between atoms: _554  and  _556
REMARK  231  A    between atoms: _556  and  _557
REMARK  232  A    between atoms: _556  and  _559
REMARK  233  A    between atoms: _559  and  _560
REMARK  234  A    between atoms: _570  and  _572
REMARK  235  A    between atoms: _572  and  _573
REMARK  236  A    between atoms: _572  and  _575
REMARK  237  A    between atoms: _575  and  _576
REMARK  238  A    between atoms: _576  and  _577
REMARK  239  A    between atoms: _577  and  _578
REMARK  240  A    between atoms: _578  and  _579
REMARK  241  A    between atoms: _583  and  _585
REMARK  242  A    between atoms: _585  and  _586
REMARK  243  A    between atoms: _585  and  _588
REMARK  244  A    between atoms: _588  and  _589
REMARK  245  A    between atoms: _592  and  _594
REMARK  246  A    between atoms: _594  and  _595
REMARK  247  A    between atoms: _594  and  _597
REMARK  248  A    between atoms: _597  and  _598
REMARK  249  A    between atoms: _603  and  _604
REMARK                            x       y       z     vdW  Elec       q    Type
REMARK                         _______ _______ _______ _____ _____    ______ ____
ROOT
ATOM      1  O   HOH     1       3.564  -9.169  47.315  0.00  0.00    +0.000 OA
ENDROOT
TORSDOF 0
REMARK  Name = ../refined-set-2016/3p8z/3p8z_pocket.pdb
REMARK  249 active torsions:
REMARK  status: ('A' for Active; 'I' for Inactive)
REMARK    1  A    between atoms: _1  and  _3
REMARK    2  A    between atoms: _3  and  _4
REMARK    3  A    between atoms: _7  and  _9
REMARK    4  A    between atoms: _9  and  _10
REMARK    5  A    between atoms: _9  and  _12
REMARK    6  A    between atoms: _15  and  _17
REMARK    7  A    between atoms: _17  and  _18
REMARK    8  A    between atoms: _17  and  _20
REMARK    9  A    between atoms: _20  and  _21
REMARK   10  A    between atoms: _23  and  _25
REMARK   11  A    between atoms: _25  and  _26
REMARK   12  A    between atoms: _25  and  _28
REMARK   13  A    between atoms: _28  and  _29
REMARK   14  A    between atoms: _29  and  _30
REMARK   15  A    between atoms: _30  and  _31
REMARK   16  A    between atoms: _40  and  _42
REMARK   17  A    between atoms: _42  and  _43
REMARK   18  A    between atoms: _45  and  _47
REMARK   19  A    between atoms: _47  and  _48
REMARK   20  A    between atoms: _47  and  _50
REMARK   21  A    between atoms: _50  and  _51
REMARK   22  A    between atoms: _53  and  _55
REMARK   23  A    between atoms: _55  and  _56
REMARK   24  A    between atoms: _59  and  _61
REMARK   25  A    between atoms: _61  and  _62
REMARK   26  A    between atoms: _61  and  _64
REMARK   27  A    between atoms: _64  and  _65
REMARK   28  A    between atoms: _65  and  _66
REMARK   29  A    between atoms: _66  and  _67
REMARK   30  A    between atoms: _67  and  _68
REMARK   31  A    between atoms: _72  and  _74
REMARK   32  A    between atoms: _74  and  _75
REMARK   33  A    between atoms: _74  and  _77
REMARK   34  A    between atoms: _77  and  _78
REMARK   35  A    between atoms: _81  and  _83
REMARK   36  A    between atoms: _83  and  _84
REMARK   37  A    between atoms: _83  and  _86
REMARK   38  A    between atoms: _86  and  _87
REMARK   39  A    between atoms: _87  and  _88
REMARK   40  A    between atoms: _93  and  _95
REMARK   41  A    between atoms: _95  and  _96
REMARK   42  A    between atoms: _95  and  _98
REMARK   43  A    between atoms: _98  and  _99
REMARK   44  A    between atoms: _102  and  _104
REMARK   45  A    between atoms: _104  and  _105
REMARK   46  A    between atoms: _104  and  _107
REMARK   47  A    between atoms: _107  and  _108
REMARK   48  A    between atoms: _111  and  _113
REMARK   49  A    between atoms: _113  and  _114
REMARK   50  A    between atoms: _116  and  _118
REMARK   51  A    between atoms: _118  and  _119
REMARK   52  A    between atoms: _118  and  _121
REMARK   53  A    between atoms: _123  and  _125
REMARK   54  A    between atoms: _125  and  _126
REMARK   55  A    between atoms: _128  and  _130
REMARK   56  A    between atoms: _130  and  _131
REMARK   57  A    between atoms: _130  and  _133
REMARK   58  A    between atoms: _133  and  _134
REMARK   59  A    between atoms: _134  and  _135
REMARK   60  A    between atoms: _135  and  _136
REMARK   61  A    between atoms: _145  and  _147
REMARK   62  A    between atoms: _147  and  _148
REMARK   63  A    between atoms: _150  and  _152
REMARK   64  A    between atoms: _152  and  _153
REMARK   65  A    between atoms: _155  and  _157
REMARK   66  A    between atoms: _157  and  _158
REMARK   67  A    between atoms: _157  and  _160
REMARK   68  A    between atoms: _160  and  _161
REMARK   69  A    between atoms: _171  and  _173
REMARK   70  A    between atoms: _173  and  _174
REMARK   71  A    between atoms: _173  and  _176
REMARK   72  A    between atoms: _176  and  _177
REMARK   73  A    between atoms: _179  and  _181
REMARK   74  A    between atoms: _181  and  _182
REMARK   75  A    between atoms: _181  and  _184
REMARK   76  A    between atoms: _184  and  _185
REMARK   77  A    between atoms: _190  and  _191
REMARK   78  A    between atoms: _193  and  _195
REMARK   79  A    between atoms: _195  and  _196
REMARK   80  A    between atoms: _195  and  _198
REMARK   81  A    between atoms: _198  and  _199
REMARK   82  A    between atoms: _204  and  _205
REMARK   83  A    between atoms: _207  and  _209
REMARK   84  A    between atoms: _209  and  _210
REMARK   85  A    between atoms: _209  and  _212
REMARK   86  A    between atoms: _212  and  _213
REMARK   87  A    between atoms: _218  and  _219
REMARK   88  A    between atoms: _221  and  _223
REMARK   89  A    between atoms: _223  and  _224
REMARK   90  A    between atoms: _223  and  _226
REMARK   91  A    between atoms: _226  and  _227
REMARK   92  A    between atoms: _230  and  _232
REMARK   93  A    between atoms: _232  and  _233
REMARK   94  A    between atoms: _232  and  _235
REMARK   95  A    between atoms: _235  and  _236
REMARK   96  A    between atoms: _236  and  _237
REMARK   97  A    between atoms: _237  and  _238
REMARK   98  A    between atoms: _238  and  _239
REMARK   99  A    between atoms: _243  and  _245
REMARK  100  A    between atoms: _245  and  _246
REMARK  101  A    between atoms: _248  and  _250
REMARK  102  A    between atoms: _250  and  _251
REMARK  103  A    between atoms: _254  and  _255
REMARK  104  A    between atoms: _260  and  _262
REMARK  105  A    between atoms: _262  and  _263
REMARK  106  A    between atoms: _265  and  _267
REMARK  107  A    between atoms: _267  and  _268
REMARK  108  A    between atoms: _267  and  _270
REMARK  109  A    between atoms: _270  and  _271
REMARK  110  A    between atoms: _276  and  _278
REMARK  111  A    between atoms: _278  and  _279
REMARK  112  A    between atoms: _278  and  _281
REMARK  113  A    between atoms: _281  and  _282
REMARK  114  A    between atoms: _282  and  _283
REMARK  115  A    between atoms: _286  and  _288
REMARK  116  A    between atoms: _288  and  _289
REMARK  117  A    between atoms: _288  and  _291
REMARK  118  A    between atoms: _291  and  _292
REMARK  119  A    between atoms: _292  and  _293
REMARK  120  A    between atoms: _297  and  _298
REMARK  121  A    between atoms: _303  and  _305
REMARK  122  A    between atoms: _305  and  _306
REMARK  123  A    between atoms: _305  and  _308
REMARK  124  A    between atoms: _311  and  _313
REMARK  125  A    between atoms: _313  and  _314
REMARK  126  A    between atoms: _313  and  _316
REMARK  127  A    between atoms: _316  and  _317
REMARK  128  A    between atoms: _317  and  _318
REMARK  129  A    between atoms: _320  and  _322
REMARK  130  A    between atoms: _322  and  _323
REMARK  131  A    between atoms: _322  and  _325
REMARK  132  A    between atoms: _325  and  _326
REMARK  133  A    between atoms: _328  and  _330
REMARK  134  A    between atoms: _330  and  _331
REMARK  135  A    between atoms: _333  and  _335
REMARK  136  A    between atoms: _335  and  _336
REMARK  137  A    between atoms: _335  and  _338
REMARK  138  A    between atoms: _338  and  _339
REMARK  139  A    between atoms: _339  and  _340
REMARK  140  A    between atoms: _340  and  _341
REMARK  141  A    between atoms: _341  and  _342
REMARK  142  A    between atoms: _346  and  _348
REMARK  143  A    between atoms: _348  and  _349
REMARK  144  A    between atoms: _348  and  _351
REMARK  145  A    between atoms: _351  and  _352
REMARK  146  A    between atoms: _355  and  _357
REMARK  147  A    between atoms: _357  and  _358
REMARK  148  A    between atoms: _357  and  _360
REMARK  149  A    between atoms: _363  and  _365
REMARK  150  A    between atoms: _365  and  _366
REMARK  151  A    between atoms: _365  and  _368
REMARK  152  A    between atoms: _368  and  _369
REMARK  153  A    between atoms: _375  and  _377
REMARK  154  A    between atoms: _377  and  _378
REMARK  155  A    between atoms: _377  and  _380
REMARK  156  A    between atoms: _380  and  _381
REMARK  157  A    between atoms: _386  and  _387
REMARK  158  A    between atoms: _389  and  _391
REMARK  159  A    between atoms: _391  and  _392
REMARK  160  A    between atoms: _391  and  _394
REMARK  161  A    between atoms: _394  and  _395
REMARK  162  A    between atoms: _398  and  _400
REMARK  163  A    between atoms: _400  and  _401
REMARK  164  A    between atoms: _400  and  _403
REMARK  165  A    between atoms: _403  and  _404
REMARK  166  A    between atoms: _407  and  _409
REMARK  167  A    between atoms: _409  and  _410
REMARK  168  A    between atoms: _409  and  _412
REMARK  169  A    between atoms: _414  and  _416
REMARK  170  A    between atoms: _416  and  _417
REMARK  171  A    between atoms: _416  and  _419
REMARK  172  A    between atoms: _419  and  _420
REMARK  173  A    between atoms: _423  and  _425
REMARK  174  A    between atoms: _425  and  _426
REMARK  175  A    between atoms: _425  and  _428
REMARK  176  A    between atoms: _428  and  _429
REMARK  177  A    between atoms: _432  and  _434
REMARK  178  A    between atoms: _434  and  _435
REMARK  179  A    between atoms: _437  and  _439
REMARK  180  A    between atoms: _439  and  _440
REMARK  181  A    between atoms: _439  and  _442
REMARK  182  A    between atoms: _442  and  _443
REMARK  183  A    between atoms: _443  and  _444
REMARK  184  A    between atoms: _447  and  _449
REMARK  185  A    between atoms: _449  and  _450
REMARK  186  A    between atoms: _449  and  _452
REMARK  187  A    between atoms: _452  and  _453
REMARK  188  A    between atoms: _455  and  _457
REMARK  189  A    between atoms: _457  and  _458
REMARK  190  A    between atoms: _457  and  _460
REMARK  191  A    between atoms: _460  and  _461
REMARK  192  A    between atoms: _461  and  _462
REMARK  193  A    between atoms: _462  and  _463
REMARK  194  A    between atoms: _472  and  _474
REMARK  195  A    between atoms: _474  and  _475
REMARK  196  A    between atoms: _474  and  _477
REMARK  197  A    between atoms: _477  and  _478
REMARK  198  A    between atoms: _481  and  _483
REMARK  199  A    between atoms: _483  and  _484
REMARK  200  A    between atoms: _483  and  _486
REMARK  201  A    between atoms: _486  and  _487
REMARK  202  A    between atoms: _490  and  _492
REMARK  203  A    between atoms: _492  and  _493
REMARK  204  A    between atoms: _492  and  _495
REMARK  205  A    between atoms: _495  and  _496
REMARK  206  A    between atoms: _496  and  _497
REMARK  207  A    between atoms: _497  and  _498
REMARK  208  A    between atoms: _507  and  _509
REMARK  209  A    between atoms: _509  and  _510
REMARK  210  A    between atoms: _509  and  _512
REMARK  211  A    between atoms: _515  and  _517
REMARK  212  A    between atoms: _517  and  _518
REMARK  213  A    between atoms: _517  and  _520
REMARK  214  A    between atoms: _520  and  _521
REMARK  215  A    between atoms: _524  and  _526
REMARK  216  A    between atoms: _526  and  _527
REMARK  217  A    between atoms: _526  and  _529
REMARK  218  A    between atoms: _529  and  _530
REMARK  219  A    between atoms: _530  and  _531
REMARK  220  A    between atoms: _531  and  _532
REMARK  221  A    between atoms: _532  and  _533
REMARK  222  A    between atoms: _537  and  _539
REMARK  223  A    between atoms: _539  and  _540
REMARK  224  A    between atoms: _539  and  _542
REMARK  225  A    between atoms: _542  and  _543
REMARK  226  A    between atoms: _543  and  _544
REMARK  227  A    between atoms: _546  and  _548
REMARK  228  A    between atoms: _548  and  _549
REMARK  229  A    between atoms: _548  and  _551
REMARK  230  A    between atoms: _554  and  _556
REMARK  231  A    between atoms: _556  and  _557
REMARK  232  A    between atoms: _556  and  _559
REMARK  233  A    between atoms: _559  and  _560
REMARK  234  A    between atoms: _570  and  _572
REMARK  235  A    between atoms: _572  and  _573
REMARK  236  A    between atoms: _572  and  _575
REMARK  237  A    between atoms: _575  and  _576
REMARK  238  A    between atoms: _576  and  _577
REMARK  239  A    between atoms: _577  and  _578
REMARK  240  A    between atoms: _578  and  _579
REMARK  241  A    between atoms: _583  and  _585
REMARK  242  A    between atoms: _585  and  _586
REMARK  243  A    between atoms: _585  and  _588
REMARK  244  A    between atoms: _588  and  _589
REMARK  245  A    between atoms: _592  and  _594
REMARK  246  A    between atoms: _594  and  _595
REMARK  247  A    between atoms: _594  and  _597
REMARK  248  A    between atoms: _597  and  _598
REMARK  249  A    between atoms: _603  and  _604
REMARK                            x       y       z     vdW  Elec       q    Type
REMARK                         _______ _______ _______ _____ _____    ______ ____
ROOT
ATOM      1  O   HOH     1       3.337   6.562  34.123  0.00  0.00    +0.000 OA
ENDROOT
TORSDOF 0
REMARK  Name = ../refined-set-2016/3p8z/3p8z_pocket.pdb
REMARK  249 active torsions:
REMARK  status: ('A' for Active; 'I' for Inactive)
REMARK    1  A    between atoms: _1  and  _3
REMARK    2  A    between atoms: _3  and  _4
REMARK    3  A    between atoms: _7  and  _9
REMARK    4  A    between atoms: _9  and  _10
REMARK    5  A    between atoms: _9  and  _12
REMARK    6  A    between atoms: _15  and  _17
REMARK    7  A    between atoms: _17  and  _18
REMARK    8  A    between atoms: _17  and  _20
REMARK    9  A    between atoms: _20  and  _21
REMARK   10  A    between atoms: _23  and  _25
REMARK   11  A    between atoms: _25  and  _26
REMARK   12  A    between atoms: _25  and  _28
REMARK   13  A    between atoms: _28  and  _29
REMARK   14  A    between atoms: _29  and  _30
REMARK   15  A    between atoms: _30  and  _31
REMARK   16  A    between atoms: _40  and  _42
REMARK   17  A    between atoms: _42  and  _43
REMARK   18  A    between atoms: _45  and  _47
REMARK   19  A    between atoms: _47  and  _48
REMARK   20  A    between atoms: _47  and  _50
REMARK   21  A    between atoms: _50  and  _51
REMARK   22  A    between atoms: _53  and  _55
REMARK   23  A    between atoms: _55  and  _56
REMARK   24  A    between atoms: _59  and  _61
REMARK   25  A    between atoms: _61  and  _62
REMARK   26  A    between atoms: _61  and  _64
REMARK   27  A    between atoms: _64  and  _65
REMARK   28  A    between atoms: _65  and  _66
REMARK   29  A    between atoms: _66  and  _67
REMARK   30  A    between atoms: _67  and  _68
REMARK   31  A    between atoms: _72  and  _74
REMARK   32  A    between atoms: _74  and  _75
REMARK   33  A    between atoms: _74  and  _77
REMARK   34  A    between atoms: _77  and  _78
REMARK   35  A    between atoms: _81  and  _83
REMARK   36  A    between atoms: _83  and  _84
REMARK   37  A    between atoms: _83  and  _86
REMARK   38  A    between atoms: _86  and  _87
REMARK   39  A    between atoms: _87  and  _88
REMARK   40  A    between atoms: _93  and  _95
REMARK   41  A    between atoms: _95  and  _96
REMARK   42  A    between atoms: _95  and  _98
REMARK   43  A    between atoms: _98  and  _99
REMARK   44  A    between atoms: _102  and  _104
REMARK   45  A    between atoms: _104  and  _105
REMARK   46  A    between atoms: _104  and  _107
REMARK   47  A    between atoms: _107  and  _108
REMARK   48  A    between atoms: _111  and  _113
REMARK   49  A    between atoms: _113  and  _114
REMARK   50  A    between atoms: _116  and  _118
REMARK   51  A    between atoms: _118  and  _119
REMARK   52  A    between atoms: _118  and  _121
REMARK   53  A    between atoms: _123  and  _125
REMARK   54  A    between atoms: _125  and  _126
REMARK   55  A    between atoms: _128  and  _130
REMARK   56  A    between atoms: _130  and  _131
REMARK   57  A    between atoms: _130  and  _133
REMARK   58  A    between atoms: _133  and  _134
REMARK   59  A    between atoms: _134  and  _135
REMARK   60  A    between atoms: _135  and  _136
REMARK   61  A    between atoms: _145  and  _147
REMARK   62  A    between atoms: _147  and  _148
REMARK   63  A    between atoms: _150  and  _152
REMARK   64  A    between atoms: _152  and  _153
REMARK   65  A    between atoms: _155  and  _157
REMARK   66  A    between atoms: _157  and  _158
REMARK   67  A    between atoms: _157  and  _160
REMARK   68  A    between atoms: _160  and  _161
REMARK   69  A    between atoms: _171  and  _173
REMARK   70  A    between atoms: _173  and  _174
REMARK   71  A    between atoms: _173  and  _176
REMARK   72  A    between atoms: _176  and  _177
REMARK   73  A    between atoms: _179  and  _181
REMARK   74  A    between atoms: _181  and  _182
REMARK   75  A    between atoms: _181  and  _184
REMARK   76  A    between atoms: _184  and  _185
REMARK   77  A    between atoms: _190  and  _191
REMARK   78  A    between atoms: _193  and  _195
REMARK   79  A    between atoms: _195  and  _196
REMARK   80  A    between atoms: _195  and  _198
REMARK   81  A    between atoms: _198  and  _199
REMARK   82  A    between atoms: _204  and  _205
REMARK   83  A    between atoms: _207  and  _209
REMARK   84  A    between atoms: _209  and  _210
REMARK   85  A    between atoms: _209  and  _212
REMARK   86  A    between atoms: _212  and  _213
REMARK   87  A    between atoms: _218  and  _219
REMARK   88  A    between atoms: _221  and  _223
REMARK   89  A    between atoms: _223  and  _224
REMARK   90  A    between atoms: _223  and  _226
REMARK   91  A    between atoms: _226  and  _227
REMARK   92  A    between atoms: _230  and  _232
REMARK   93  A    between atoms: _232  and  _233
REMARK   94  A    between atoms: _232  and  _235
REMARK   95  A    between atoms: _235  and  _236
REMARK   96  A    between atoms: _236  and  _237
REMARK   97  A    between atoms: _237  and  _238
REMARK   98  A    between atoms: _238  and  _239
REMARK   99  A    between atoms: _243  and  _245
REMARK  100  A    between atoms: _245  and  _246
REMARK  101  A    between atoms: _248  and  _250
REMARK  102  A    between atoms: _250  and  _251
REMARK  103  A    between atoms: _254  and  _255
REMARK  104  A    between atoms: _260  and  _262
REMARK  105  A    between atoms: _262  and  _263
REMARK  106  A    between atoms: _265  and  _267
REMARK  107  A    between atoms: _267  and  _268
REMARK  108  A    between atoms: _267  and  _270
REMARK  109  A    between atoms: _270  and  _271
REMARK  110  A    between atoms: _276  and  _278
REMARK  111  A    between atoms: _278  and  _279
REMARK  112  A    between atoms: _278  and  _281
REMARK  113  A    between atoms: _281  and  _282
REMARK  114  A    between atoms: _282  and  _283
REMARK  115  A    between atoms: _286  and  _288
REMARK  116  A    between atoms: _288  and  _289
REMARK  117  A    between atoms: _288  and  _291
REMARK  118  A    between atoms: _291  and  _292
REMARK  119  A    between atoms: _292  and  _293
REMARK  120  A    between atoms: _297  and  _298
REMARK  121  A    between atoms: _303  and  _305
REMARK  122  A    between atoms: _305  and  _306
REMARK  123  A    between atoms: _305  and  _308
REMARK  124  A    between atoms: _311  and  _313
REMARK  125  A    between atoms: _313  and  _314
REMARK  126  A    between atoms: _313  and  _316
REMARK  127  A    between atoms: _316  and  _317
REMARK  128  A    between atoms: _317  and  _318
REMARK  129  A    between atoms: _320  and  _322
REMARK  130  A    between atoms: _322  and  _323
REMARK  131  A    between atoms: _322  and  _325
REMARK  132  A    between atoms: _325  and  _326
REMARK  133  A    between atoms: _328  and  _330
REMARK  134  A    between atoms: _330  and  _331
REMARK  135  A    between atoms: _333  and  _335
REMARK  136  A    between atoms: _335  and  _336
REMARK  137  A    between atoms: _335  and  _338
REMARK  138  A    between atoms: _338  and  _339
REMARK  139  A    between atoms: _339  and  _340
REMARK  140  A    between atoms: _340  and  _341
REMARK  141  A    between atoms: _341  and  _342
REMARK  142  A    between atoms: _346  and  _348
REMARK  143  A    between atoms: _348  and  _349
REMARK  144  A    between atoms: _348  and  _351
REMARK  145  A    between atoms: _351  and  _352
REMARK  146  A    between atoms: _355  and  _357
REMARK  147  A    between atoms: _357  and  _358
REMARK  148  A    between atoms: _357  and  _360
REMARK  149  A    between atoms: _363  and  _365
REMARK  150  A    between atoms: _365  and  _366
REMARK  151  A    between atoms: _365  and  _368
REMARK  152  A    between atoms: _368  and  _369
REMARK  153  A    between atoms: _375  and  _377
REMARK  154  A    between atoms: _377  and  _378
REMARK  155  A    between atoms: _377  and  _380
REMARK  156  A    between atoms: _380  and  _381
REMARK  157  A    between atoms: _386  and  _387
REMARK  158  A    between atoms: _389  and  _391
REMARK  159  A    between atoms: _391  and  _392
REMARK  160  A    between atoms: _391  and  _394
REMARK  161  A    between atoms: _394  and  _395
REMARK  162  A    between atoms: _398  and  _400
REMARK  163  A    between atoms: _400  and  _401
REMARK  164  A    between atoms: _400  and  _403
REMARK  165  A    between atoms: _403  and  _404
REMARK  166  A    between atoms: _407  and  _409
REMARK  167  A    between atoms: _409  and  _410
REMARK  168  A    between atoms: _409  and  _412
REMARK  169  A    between atoms: _414  and  _416
REMARK  170  A    between atoms: _416  and  _417
REMARK  171  A    between atoms: _416  and  _419
REMARK  172  A    between atoms: _419  and  _420
REMARK  173  A    between atoms: _423  and  _425
REMARK  174  A    between atoms: _425  and  _426
REMARK  175  A    between atoms: _425  and  _428
REMARK  176  A    between atoms: _428  and  _429
REMARK  177  A    between atoms: _432  and  _434
REMARK  178  A    between atoms: _434  and  _435
REMARK  179  A    between atoms: _437  and  _439
REMARK  180  A    between atoms: _439  and  _440
REMARK  181  A    between atoms: _439  and  _442
REMARK  182  A    between atoms: _442  and  _443
REMARK  183  A    between atoms: _443  and  _444
REMARK  184  A    between atoms: _447  and  _449
REMARK  185  A    between atoms: _449  and  _450
REMARK  186  A    between atoms: _449  and  _452
REMARK  187  A    between atoms: _452  and  _453
REMARK  188  A    between atoms: _455  and  _457
REMARK  189  A    between atoms: _457  and  _458
REMARK  190  A    between atoms: _457  and  _460
REMARK  191  A    between atoms: _460  and  _461
REMARK  192  A    between atoms: _461  and  _462
REMARK  193  A    between atoms: _462  and  _463
REMARK  194  A    between atoms: _472  and  _474
REMARK  195  A    between atoms: _474  and  _475
REMARK  196  A    between atoms: _474  and  _477
REMARK  197  A    between atoms: _477  and  _478
REMARK  198  A    between atoms: _481  and  _483
REMARK  199  A    between atoms: _483  and  _484
REMARK  200  A    between atoms: _483  and  _486
REMARK  201  A    between atoms: _486  and  _487
REMARK  202  A    between atoms: _490  and  _492
REMARK  203  A    between atoms: _492  and  _493
REMARK  204  A    between atoms: _492  and  _495
REMARK  205  A    between atoms: _495  and  _496
REMARK  206  A    between atoms: _496  and  _497
REMARK  207  A    between atoms: _497  and  _498
REMARK  208  A    between atoms: _507  and  _509
REMARK  209  A    between atoms: _509  and  _510
REMARK  210  A    between atoms: _509  and  _512
REMARK  211  A    between atoms: _515  and  _517
REMARK  212  A    between atoms: _517  and  _518
REMARK  213  A    between atoms: _517  and  _520
REMARK  214  A    between atoms: _520  and  _521
REMARK  215  A    between atoms: _524  and  _526
REMARK  216  A    between atoms: _526  and  _527
REMARK  217  A    between atoms: _526  and  _529
REMARK  218  A    between atoms: _529  and  _530
REMARK  219  A    between atoms: _530  and  _531
REMARK  220  A    between atoms: _531  and  _532
REMARK  221  A    between atoms: _532  and  _533
REMARK  222  A    between atoms: _537  and  _539
REMARK  223  A    between atoms: _539  and  _540
REMARK  224  A    between atoms: _539  and  _542
REMARK  225  A    between atoms: _542  and  _543
REMARK  226  A    between atoms: _543  and  _544
REMARK  227  A    between atoms: _546  and  _548
REMARK  228  A    between atoms: _548  and  _549
REMARK  229  A    between atoms: _548  and  _551
REMARK  230  A    between atoms: _554  and  _556
REMARK  231  A    between atoms: _556  and  _557
REMARK  232  A    between atoms: _556  and  _559
REMARK  233  A    between atoms: _559  and  _560
REMARK  234  A    between atoms: _570  and  _572
REMARK  235  A    between atoms: _572  and  _573
REMARK  236  A    between atoms: _572  and  _575
REMARK  237  A    between atoms: _575  and  _576
REMARK  238  A    between atoms: _576  and  _577
REMARK  239  A    between atoms: _577  and  _578
REMARK  240  A    between atoms: _578  and  _579
REMARK  241  A    between atoms: _583  and  _585
REMARK  242  A    between atoms: _585  and  _586
REMARK  243  A    between atoms: _585  and  _588
REMARK  244  A    between atoms: _588  and  _589
REMARK  245  A    between atoms: _592  and  _594
REMARK  246  A    between atoms: _594  and  _595
REMARK  247  A    between atoms: _594  and  _597
REMARK  248  A    between atoms: _597  and  _598
REMARK  249  A    between atoms: _603  and  _604
REMARK                            x       y       z     vdW  Elec       q    Type
REMARK                         _______ _______ _______ _____ _____    ______ ____
ROOT
ATOM      1  O   HOH     1      10.046   8.661  40.031  0.00  0.00    +0.000 OA
ENDROOT
TORSDOF 0
