REMARK  Name = ../refined-set-2016/4ayu/4ayu_pocket.pdb
REMARK  115 active torsions:
REMARK  status: ('A' for Active; 'I' for Inactive)
REMARK    1  A    between atoms: _1  and  _3
REMARK    2  A    between atoms: _3  and  _4
REMARK    3  A    between atoms: _7  and  _9
REMARK    4  A    between atoms: _9  and  _10
REMARK    5  A    between atoms: _9  and  _12
REMARK    6  A    between atoms: _12  and  _13
REMARK    7  A    between atoms: _18  and  _19
REMARK    8  A    between atoms: _21  and  _23
REMARK    9  A    between atoms: _23  and  _24
REMARK   10  A    between atoms: _23  and  _26
REMARK   11  A    between atoms: _26  and  _27
REMARK   12  A    between atoms: _29  and  _31
REMARK   13  A    between atoms: _31  and  _32
REMARK   14  A    between atoms: _31  and  _34
REMARK   15  A    between atoms: _34  and  _35
REMARK   16  A    between atoms: _37  and  _39
REMARK   17  A    between atoms: _39  and  _40
REMARK   18  A    between atoms: _39  and  _42
REMARK   19  A    between atoms: _42  and  _43
REMARK   20  A    between atoms: _48  and  _50
REMARK   21  A    between atoms: _50  and  _51
REMARK   22  A    between atoms: _50  and  _53
REMARK   23  A    between atoms: _53  and  _54
REMARK   24  A    between atoms: _57  and  _59
REMARK   25  A    between atoms: _59  and  _60
REMARK   26  A    between atoms: _59  and  _62
REMARK   27  A    between atoms: _62  and  _63
REMARK   28  A    between atoms: _68  and  _70
REMARK   29  A    between atoms: _70  and  _71
REMARK   30  A    between atoms: _70  and  _73
REMARK   31  A    between atoms: _73  and  _74
REMARK   32  A    between atoms: _74  and  _75
REMARK   33  A    between atoms: _78  and  _80
REMARK   34  A    between atoms: _80  and  _81
REMARK   35  A    between atoms: _80  and  _83
REMARK   36  A    between atoms: _83  and  _84
REMARK   37  A    between atoms: _87  and  _89
REMARK   38  A    between atoms: _89  and  _90
REMARK   39  A    between atoms: _89  and  _92
REMARK   40  A    between atoms: _95  and  _97
REMARK   41  A    between atoms: _97  and  _98
REMARK   42  A    between atoms: _97  and  _100
REMARK   43  A    between atoms: _100  and  _101
REMARK   44  A    between atoms: _106  and  _107
REMARK   45  A    between atoms: _109  and  _111
REMARK   46  A    between atoms: _111  and  _112
REMARK   47  A    between atoms: _111  and  _114
REMARK   48  A    between atoms: _114  and  _115
REMARK   49  A    between atoms: _115  and  _116
REMARK   50  A    between atoms: _116  and  _117
REMARK   51  A    between atoms: _117  and  _118
REMARK   52  A    between atoms: _122  and  _124
REMARK   53  A    between atoms: _124  and  _125
REMARK   54  A    between atoms: _124  and  _127
REMARK   55  A    between atoms: _127  and  _128
REMARK   56  A    between atoms: _128  and  _129
REMARK   57  A    between atoms: _132  and  _134
REMARK   58  A    between atoms: _134  and  _135
REMARK   59  A    between atoms: _134  and  _137
REMARK   60  A    between atoms: _137  and  _138
REMARK   61  A    between atoms: _140  and  _142
REMARK   62  A    between atoms: _142  and  _143
REMARK   63  A    between atoms: _142  and  _145
REMARK   64  A    between atoms: _145  and  _146
REMARK   65  A    between atoms: _151  and  _152
REMARK   66  A    between atoms: _154  and  _156
REMARK   67  A    between atoms: _156  and  _157
REMARK   68  A    between atoms: _156  and  _159
REMARK   69  A    between atoms: _159  and  _160
REMARK   70  A    between atoms: _160  and  _161
REMARK   71  A    between atoms: _161  and  _162
REMARK   72  A    between atoms: _171  and  _173
REMARK   73  A    between atoms: _173  and  _174
REMARK   74  A    between atoms: _173  and  _176
REMARK   75  A    between atoms: _176  and  _177
REMARK   76  A    between atoms: _177  and  _178
REMARK   77  A    between atoms: _178  and  _179
REMARK   78  A    between atoms: _179  and  _180
REMARK   79  A    between atoms: _184  and  _186
REMARK   80  A    between atoms: _186  and  _187
REMARK   81  A    between atoms: _186  and  _189
REMARK   82  A    between atoms: _189  and  _190
REMARK   83  A    between atoms: _190  and  _191
REMARK   84  A    between atoms: _191  and  _192
REMARK   85  A    between atoms: _192  and  CA_265
REMARK   86  A    between atoms: _194  and  _196
REMARK   87  A    between atoms: _196  and  _197
REMARK   88  A    between atoms: _196  and  _199
REMARK   89  A    between atoms: _199  and  _200
REMARK   90  A    between atoms: _200  and  _201
REMARK   91  A    between atoms: _208  and  _209
REMARK   92  A    between atoms: _215  and  _217
REMARK   93  A    between atoms: _217  and  _218
REMARK   94  A    between atoms: _217  and  _220
REMARK   95  A    between atoms: _220  and  _221
REMARK   96  A    between atoms: _223  and  _225
REMARK   97  A    between atoms: _225  and  _226
REMARK   98  A    between atoms: _225  and  _228
REMARK   99  A    between atoms: _228  and  _229
REMARK  100  A    between atoms: _229  and  _230
REMARK  101  A    between atoms: _230  and  _231
REMARK  102  A    between atoms: _231  and  _232
REMARK  103  A    between atoms: _236  and  _238
REMARK  104  A    between atoms: _238  and  _239
REMARK  105  A    between atoms: _238  and  _241
REMARK  106  A    between atoms: _241  and  _242
REMARK  107  A    between atoms: _245  and  _247
REMARK  108  A    between atoms: _247  and  _248
REMARK  109  A    between atoms: _247  and  _250
REMARK  110  A    between atoms: _250  and  _251
REMARK  111  A    between atoms: _253  and  _255
REMARK  112  A    between atoms: _255  and  _256
REMARK  113  A    between atoms: _255  and  _258
REMARK  114  A    between atoms: _258  and  _259
REMARK  115  A    between atoms: _259  and  _260
REMARK                            x       y       z     vdW  Elec       q    Type
REMARK                         _______ _______ _______ _____ _____    ______ ____
ROOT
ATOM      1  CA  TYR A   2     -91.488   2.088 -25.961  0.00  0.00    +0.153 C 
ENDROOT
BRANCH   1   3
ATOM      2  C   ALA A   1     -89.433   3.344 -25.798  0.00  0.00    +0.238 C 
ATOM      3  N   TYR A   2     -90.228   2.408 -25.315  0.00  0.00    -0.297 N 
ATOM      4  H   TYR A   2     -89.947   1.891 -24.457  0.00  0.00    +0.150 HD
ATOM      5  O   ALA A   1     -89.690   3.964 -26.835  0.00  0.00    -0.274 OA
BRANCH   2   6
ATOM      6  CA  ALA A   1     -88.167   3.619 -24.995  0.00  0.00    +0.145 C 
ATOM      7  CB  ALA A   1     -88.466   4.615 -23.879  0.00  0.00    +0.028 C 
BRANCH   6   8
ATOM      8  N   ALA A   1     -87.118   4.138 -25.857  0.00  0.00    -0.238 NA
ATOM      9  H   ALA A   1     -86.846   5.138 -25.774  0.00  0.00    +0.142 HD
ENDBRANCH   6   8
ENDBRANCH   2   6
ENDBRANCH   1   3
BRANCH   1  10
ATOM     10  C   TYR A   2     -92.439   1.358 -25.040  0.00  0.00    +0.241 C 
ATOM     11  O   TYR A   2     -92.022   0.670 -24.126  0.00  0.00    -0.273 OA
ATOM     12  N   SER A   3     -93.726   1.504 -25.309  0.00  0.00    -0.296 N 
ATOM     13  H   SER A   3     -94.005   2.173 -26.055  0.00  0.00    +0.150 HD
BRANCH  12  14
ATOM     14  CA  SER A   3     -94.763   0.775 -24.613  0.00  0.00    +0.166 C 
BRANCH  14  15
ATOM     15  CB  SER A   3     -94.960  -0.629 -25.193  0.00  0.00    +0.229 C 
ATOM     16  OG  SER A   3     -95.097  -0.795 -26.416  0.00  0.00    -0.286 OA
ENDBRANCH  14  15
BRANCH  14  17
ATOM     17  C   SER A   3     -96.093   1.538 -24.705  0.00  0.00    +0.165 C 
BRANCH  17  18
ATOM     18  O   SER A   3     -97.110   0.817 -24.047  0.00  0.00    -0.380 OA
ATOM     19  H   SER A   3     -97.213  -0.070 -24.474  0.00  0.00    +0.211 HD
ENDBRANCH  17  18
ENDBRANCH  14  17
ENDBRANCH  12  14
ENDBRANCH   1  10
BRANCH   1  20
ATOM     20  CB  TYR A   2     -91.259   1.279 -27.246  0.00  0.00    +0.055 C 
BRANCH  20  21
ATOM     21  CG  TYR A   2     -90.438   0.014 -27.129  0.00  0.00    -0.020 A 
ATOM     22  CD2 TYR A   2     -91.023  -1.192 -26.788  0.00  0.00    -0.001 A 
ATOM     23  CE2 TYR A   2     -90.273  -2.357 -26.726  0.00  0.00    +0.036 A 
ATOM     24  CZ  TYR A   2     -88.931  -2.330 -27.036  0.00  0.00    +0.134 A 
ATOM     25  CE1 TYR A   2     -88.335  -1.145 -27.377  0.00  0.00    +0.036 A 
ATOM     26  CD1 TYR A   2     -89.091   0.017 -27.442  0.00  0.00    -0.001 A 
BRANCH  24  27
ATOM     27  OH  TYR A   2     -88.185  -3.502 -26.982  0.00  0.00    -0.506 OA
ATOM     28  HH  TYR A   2     -88.773  -4.254 -26.721  0.00  0.00    +0.292 HD
ENDBRANCH  24  27
ENDBRANCH  20  21
ENDBRANCH   1  20
TORSDOF 11
REMARK  Name = ../refined-set-2016/4ayu/4ayu_pocket.pdb
REMARK  115 active torsions:
REMARK  status: ('A' for Active; 'I' for Inactive)
REMARK    1  A    between atoms: _1  and  _3
REMARK    2  A    between atoms: _3  and  _4
REMARK    3  A    between atoms: _7  and  _9
REMARK    4  A    between atoms: _9  and  _10
REMARK    5  A    between atoms: _9  and  _12
REMARK    6  A    between atoms: _12  and  _13
REMARK    7  A    between atoms: _18  and  _19
REMARK    8  A    between atoms: _21  and  _23
REMARK    9  A    between atoms: _23  and  _24
REMARK   10  A    between atoms: _23  and  _26
REMARK   11  A    between atoms: _26  and  _27
REMARK   12  A    between atoms: _29  and  _31
REMARK   13  A    between atoms: _31  and  _32
REMARK   14  A    between atoms: _31  and  _34
REMARK   15  A    between atoms: _34  and  _35
REMARK   16  A    between atoms: _37  and  _39
REMARK   17  A    between atoms: _39  and  _40
REMARK   18  A    between atoms: _39  and  _42
REMARK   19  A    between atoms: _42  and  _43
REMARK   20  A    between atoms: _48  and  _50
REMARK   21  A    between atoms: _50  and  _51
REMARK   22  A    between atoms: _50  and  _53
REMARK   23  A    between atoms: _53  and  _54
REMARK   24  A    between atoms: _57  and  _59
REMARK   25  A    between atoms: _59  and  _60
REMARK   26  A    between atoms: _59  and  _62
REMARK   27  A    between atoms: _62  and  _63
REMARK   28  A    between atoms: _68  and  _70
REMARK   29  A    between atoms: _70  and  _71
REMARK   30  A    between atoms: _70  and  _73
REMARK   31  A    between atoms: _73  and  _74
REMARK   32  A    between atoms: _74  and  _75
REMARK   33  A    between atoms: _78  and  _80
REMARK   34  A    between atoms: _80  and  _81
REMARK   35  A    between atoms: _80  and  _83
REMARK   36  A    between atoms: _83  and  _84
REMARK   37  A    between atoms: _87  and  _89
REMARK   38  A    between atoms: _89  and  _90
REMARK   39  A    between atoms: _89  and  _92
REMARK   40  A    between atoms: _95  and  _97
REMARK   41  A    between atoms: _97  and  _98
REMARK   42  A    between atoms: _97  and  _100
REMARK   43  A    between atoms: _100  and  _101
REMARK   44  A    between atoms: _106  and  _107
REMARK   45  A    between atoms: _109  and  _111
REMARK   46  A    between atoms: _111  and  _112
REMARK   47  A    between atoms: _111  and  _114
REMARK   48  A    between atoms: _114  and  _115
REMARK   49  A    between atoms: _115  and  _116
REMARK   50  A    between atoms: _116  and  _117
REMARK   51  A    between atoms: _117  and  _118
REMARK   52  A    between atoms: _122  and  _124
REMARK   53  A    between atoms: _124  and  _125
REMARK   54  A    between atoms: _124  and  _127
REMARK   55  A    between atoms: _127  and  _128
REMARK   56  A    between atoms: _128  and  _129
REMARK   57  A    between atoms: _132  and  _134
REMARK   58  A    between atoms: _134  and  _135
REMARK   59  A    between atoms: _134  and  _137
REMARK   60  A    between atoms: _137  and  _138
REMARK   61  A    between atoms: _140  and  _142
REMARK   62  A    between atoms: _142  and  _143
REMARK   63  A    between atoms: _142  and  _145
REMARK   64  A    between atoms: _145  and  _146
REMARK   65  A    between atoms: _151  and  _152
REMARK   66  A    between atoms: _154  and  _156
REMARK   67  A    between atoms: _156  and  _157
REMARK   68  A    between atoms: _156  and  _159
REMARK   69  A    between atoms: _159  and  _160
REMARK   70  A    between atoms: _160  and  _161
REMARK   71  A    between atoms: _161  and  _162
REMARK   72  A    between atoms: _171  and  _173
REMARK   73  A    between atoms: _173  and  _174
REMARK   74  A    between atoms: _173  and  _176
REMARK   75  A    between atoms: _176  and  _177
REMARK   76  A    between atoms: _177  and  _178
REMARK   77  A    between atoms: _178  and  _179
REMARK   78  A    between atoms: _179  and  _180
REMARK   79  A    between atoms: _184  and  _186
REMARK   80  A    between atoms: _186  and  _187
REMARK   81  A    between atoms: _186  and  _189
REMARK   82  A    between atoms: _189  and  _190
REMARK   83  A    between atoms: _190  and  _191
REMARK   84  A    between atoms: _191  and  _192
REMARK   85  A    between atoms: _192  and  CA_265
REMARK   86  A    between atoms: _194  and  _196
REMARK   87  A    between atoms: _196  and  _197
REMARK   88  A    between atoms: _196  and  _199
REMARK   89  A    between atoms: _199  and  _200
REMARK   90  A    between atoms: _200  and  _201
REMARK   91  A    between atoms: _208  and  _209
REMARK   92  A    between atoms: _215  and  _217
REMARK   93  A    between atoms: _217  and  _218
REMARK   94  A    between atoms: _217  and  _220
REMARK   95  A    between atoms: _220  and  _221
REMARK   96  A    between atoms: _223  and  _225
REMARK   97  A    between atoms: _225  and  _226
REMARK   98  A    between atoms: _225  and  _228
REMARK   99  A    between atoms: _228  and  _229
REMARK  100  A    between atoms: _229  and  _230
REMARK  101  A    between atoms: _230  and  _231
REMARK  102  A    between atoms: _231  and  _232
REMARK  103  A    between atoms: _236  and  _238
REMARK  104  A    between atoms: _238  and  _239
REMARK  105  A    between atoms: _238  and  _241
REMARK  106  A    between atoms: _241  and  _242
REMARK  107  A    between atoms: _245  and  _247
REMARK  108  A    between atoms: _247  and  _248
REMARK  109  A    between atoms: _247  and  _250
REMARK  110  A    between atoms: _250  and  _251
REMARK  111  A    between atoms: _253  and  _255
REMARK  112  A    between atoms: _255  and  _256
REMARK  113  A    between atoms: _255  and  _258
REMARK  114  A    between atoms: _258  and  _259
REMARK  115  A    between atoms: _259  and  _260
REMARK                            x       y       z     vdW  Elec       q    Type
REMARK                         _______ _______ _______ _____ _____    ______ ____
ROOT
ATOM      1  CA  SER A   1    -100.940  -0.164 -22.327  0.00  0.00    +0.163 C 
ENDROOT
BRANCH   1   2
ATOM      2  N   SER A   1    -100.385  -1.389 -22.898  0.00  0.00    -0.237 NA
ATOM      3  H   SER A   1    -100.816  -1.783 -23.759  0.00  0.00    +0.142 HD
ENDBRANCH   1   2
BRANCH   1   4
ATOM      4  CB  SER A   1    -102.406  -0.400 -21.969  0.00  0.00    +0.227 C 
ATOM      5  OG  SER A   1    -103.222  -0.679 -22.850  0.00  0.00    -0.287 OA
ENDBRANCH   1   4
BRANCH   1   6
ATOM      6  C   SER A   1    -100.812   0.968 -23.351  0.00  0.00    +0.162 C 
BRANCH   6   7
ATOM      7  O   SER A   1    -101.509   2.148 -22.973  0.00  0.00    -0.380 OA
ATOM      8  H   SER A   1    -101.150   2.481 -22.113  0.00  0.00    +0.211 HD
ENDBRANCH   6   7
ENDBRANCH   1   6
TORSDOF 4
REMARK  Name = ../refined-set-2016/4ayu/4ayu_pocket.pdb
REMARK  115 active torsions:
REMARK  status: ('A' for Active; 'I' for Inactive)
REMARK    1  A    between atoms: _1  and  _3
REMARK    2  A    between atoms: _3  and  _4
REMARK    3  A    between atoms: _7  and  _9
REMARK    4  A    between atoms: _9  and  _10
REMARK    5  A    between atoms: _9  and  _12
REMARK    6  A    between atoms: _12  and  _13
REMARK    7  A    between atoms: _18  and  _19
REMARK    8  A    between atoms: _21  and  _23
REMARK    9  A    between atoms: _23  and  _24
REMARK   10  A    between atoms: _23  and  _26
REMARK   11  A    between atoms: _26  and  _27
REMARK   12  A    between atoms: _29  and  _31
REMARK   13  A    between atoms: _31  and  _32
REMARK   14  A    between atoms: _31  and  _34
REMARK   15  A    between atoms: _34  and  _35
REMARK   16  A    between atoms: _37  and  _39
REMARK   17  A    between atoms: _39  and  _40
REMARK   18  A    between atoms: _39  and  _42
REMARK   19  A    between atoms: _42  and  _43
REMARK   20  A    between atoms: _48  and  _50
REMARK   21  A    between atoms: _50  and  _51
REMARK   22  A    between atoms: _50  and  _53
REMARK   23  A    between atoms: _53  and  _54
REMARK   24  A    between atoms: _57  and  _59
REMARK   25  A    between atoms: _59  and  _60
REMARK   26  A    between atoms: _59  and  _62
REMARK   27  A    between atoms: _62  and  _63
REMARK   28  A    between atoms: _68  and  _70
REMARK   29  A    between atoms: _70  and  _71
REMARK   30  A    between atoms: _70  and  _73
REMARK   31  A    between atoms: _73  and  _74
REMARK   32  A    between atoms: _74  and  _75
REMARK   33  A    between atoms: _78  and  _80
REMARK   34  A    between atoms: _80  and  _81
REMARK   35  A    between atoms: _80  and  _83
REMARK   36  A    between atoms: _83  and  _84
REMARK   37  A    between atoms: _87  and  _89
REMARK   38  A    between atoms: _89  and  _90
REMARK   39  A    between atoms: _89  and  _92
REMARK   40  A    between atoms: _95  and  _97
REMARK   41  A    between atoms: _97  and  _98
REMARK   42  A    between atoms: _97  and  _100
REMARK   43  A    between atoms: _100  and  _101
REMARK   44  A    between atoms: _106  and  _107
REMARK   45  A    between atoms: _109  and  _111
REMARK   46  A    between atoms: _111  and  _112
REMARK   47  A    between atoms: _111  and  _114
REMARK   48  A    between atoms: _114  and  _115
REMARK   49  A    between atoms: _115  and  _116
REMARK   50  A    between atoms: _116  and  _117
REMARK   51  A    between atoms: _117  and  _118
REMARK   52  A    between atoms: _122  and  _124
REMARK   53  A    between atoms: _124  and  _125
REMARK   54  A    between atoms: _124  and  _127
REMARK   55  A    between atoms: _127  and  _128
REMARK   56  A    between atoms: _128  and  _129
REMARK   57  A    between atoms: _132  and  _134
REMARK   58  A    between atoms: _134  and  _135
REMARK   59  A    between atoms: _134  and  _137
REMARK   60  A    between atoms: _137  and  _138
REMARK   61  A    between atoms: _140  and  _142
REMARK   62  A    between atoms: _142  and  _143
REMARK   63  A    between atoms: _142  and  _145
REMARK   64  A    between atoms: _145  and  _146
REMARK   65  A    between atoms: _151  and  _152
REMARK   66  A    between atoms: _154  and  _156
REMARK   67  A    between atoms: _156  and  _157
REMARK   68  A    between atoms: _156  and  _159
REMARK   69  A    between atoms: _159  and  _160
REMARK   70  A    between atoms: _160  and  _161
REMARK   71  A    between atoms: _161  and  _162
REMARK   72  A    between atoms: _171  and  _173
REMARK   73  A    between atoms: _173  and  _174
REMARK   74  A    between atoms: _173  and  _176
REMARK   75  A    between atoms: _176  and  _177
REMARK   76  A    between atoms: _177  and  _178
REMARK   77  A    between atoms: _178  and  _179
REMARK   78  A    between atoms: _179  and  _180
REMARK   79  A    between atoms: _184  and  _186
REMARK   80  A    between atoms: _186  and  _187
REMARK   81  A    between atoms: _186  and  _189
REMARK   82  A    between atoms: _189  and  _190
REMARK   83  A    between atoms: _190  and  _191
REMARK   84  A    between atoms: _191  and  _192
REMARK   85  A    between atoms: _192  and  CA_265
REMARK   86  A    between atoms: _194  and  _196
REMARK   87  A    between atoms: _196  and  _197
REMARK   88  A    between atoms: _196  and  _199
REMARK   89  A    between atoms: _199  and  _200
REMARK   90  A    between atoms: _200  and  _201
REMARK   91  A    between atoms: _208  and  _209
REMARK   92  A    between atoms: _215  and  _217
REMARK   93  A    between atoms: _217  and  _218
REMARK   94  A    between atoms: _217  and  _220
REMARK   95  A    between atoms: _220  and  _221
REMARK   96  A    between atoms: _223  and  _225
REMARK   97  A    between atoms: _225  and  _226
REMARK   98  A    between atoms: _225  and  _228
REMARK   99  A    between atoms: _228  and  _229
REMARK  100  A    between atoms: _229  and  _230
REMARK  101  A    between atoms: _230  and  _231
REMARK  102  A    between atoms: _231  and  _232
REMARK  103  A    between atoms: _236  and  _238
REMARK  104  A    between atoms: _238  and  _239
REMARK  105  A    between atoms: _238  and  _241
REMARK  106  A    between atoms: _241  and  _242
REMARK  107  A    between atoms: _245  and  _247
REMARK  108  A    between atoms: _247  and  _248
REMARK  109  A    between atoms: _247  and  _250
REMARK  110  A    between atoms: _250  and  _251
REMARK  111  A    between atoms: _253  and  _255
REMARK  112  A    between atoms: _255  and  _256
REMARK  113  A    between atoms: _255  and  _258
REMARK  114  A    between atoms: _258  and  _259
REMARK  115  A    between atoms: _259  and  _260
REMARK                            x       y       z     vdW  Elec       q    Type
REMARK                         _______ _______ _______ _____ _____    ______ ____
ROOT
ATOM      1  CB  ASN A   1    -105.750   3.929 -20.297  0.00  0.00    +0.110 C 
ENDROOT
BRANCH   1   2
ATOM      2  CG  ASN A   1    -104.404   4.616 -20.187  0.00  0.00    +0.221 C 
ATOM      3  OD1 ASN A   1    -103.449   4.060 -19.643  0.00  0.00    -0.275 OA
ATOM      4  ND2 ASN A   1    -104.316   5.835 -20.728  0.00  0.00    -0.329 N 
ATOM      5 HD21 ASN A   1    -103.414   6.353 -20.700  0.00  0.00    +0.145 HD
ATOM      6 HD22 ASN A   1    -105.149   6.266 -21.177  0.00  0.00    +0.145 HD
ENDBRANCH   1   2
BRANCH   1   7
ATOM      7  CA  ASN A   1    -105.919   2.756 -19.321  0.00  0.00    +0.142 C 
BRANCH   7   8
ATOM      8  N   ASN A   1    -105.416   1.515 -19.913  0.00  0.00    -0.239 NA
ATOM      9  H   ASN A   1    -105.835   1.189 -20.808  0.00  0.00    +0.142 HD
ENDBRANCH   7   8
BRANCH   7  10
ATOM     10  C   ASN A   1    -107.405   2.592 -19.007  0.00  0.00    +0.225 C 
ATOM     11  O   ASN A   1    -108.111   1.830 -19.656  0.00  0.00    -0.287 OA
ENDBRANCH   7  10
ENDBRANCH   1   7
TORSDOF 4
REMARK  Name = ../refined-set-2016/4ayu/4ayu_pocket.pdb
REMARK  115 active torsions:
REMARK  status: ('A' for Active; 'I' for Inactive)
REMARK    1  A    between atoms: _1  and  _3
REMARK    2  A    between atoms: _3  and  _4
REMARK    3  A    between atoms: _7  and  _9
REMARK    4  A    between atoms: _9  and  _10
REMARK    5  A    between atoms: _9  and  _12
REMARK    6  A    between atoms: _12  and  _13
REMARK    7  A    between atoms: _18  and  _19
REMARK    8  A    between atoms: _21  and  _23
REMARK    9  A    between atoms: _23  and  _24
REMARK   10  A    between atoms: _23  and  _26
REMARK   11  A    between atoms: _26  and  _27
REMARK   12  A    between atoms: _29  and  _31
REMARK   13  A    between atoms: _31  and  _32
REMARK   14  A    between atoms: _31  and  _34
REMARK   15  A    between atoms: _34  and  _35
REMARK   16  A    between atoms: _37  and  _39
REMARK   17  A    between atoms: _39  and  _40
REMARK   18  A    between atoms: _39  and  _42
REMARK   19  A    between atoms: _42  and  _43
REMARK   20  A    between atoms: _48  and  _50
REMARK   21  A    between atoms: _50  and  _51
REMARK   22  A    between atoms: _50  and  _53
REMARK   23  A    between atoms: _53  and  _54
REMARK   24  A    between atoms: _57  and  _59
REMARK   25  A    between atoms: _59  and  _60
REMARK   26  A    between atoms: _59  and  _62
REMARK   27  A    between atoms: _62  and  _63
REMARK   28  A    between atoms: _68  and  _70
REMARK   29  A    between atoms: _70  and  _71
REMARK   30  A    between atoms: _70  and  _73
REMARK   31  A    between atoms: _73  and  _74
REMARK   32  A    between atoms: _74  and  _75
REMARK   33  A    between atoms: _78  and  _80
REMARK   34  A    between atoms: _80  and  _81
REMARK   35  A    between atoms: _80  and  _83
REMARK   36  A    between atoms: _83  and  _84
REMARK   37  A    between atoms: _87  and  _89
REMARK   38  A    between atoms: _89  and  _90
REMARK   39  A    between atoms: _89  and  _92
REMARK   40  A    between atoms: _95  and  _97
REMARK   41  A    between atoms: _97  and  _98
REMARK   42  A    between atoms: _97  and  _100
REMARK   43  A    between atoms: _100  and  _101
REMARK   44  A    between atoms: _106  and  _107
REMARK   45  A    between atoms: _109  and  _111
REMARK   46  A    between atoms: _111  and  _112
REMARK   47  A    between atoms: _111  and  _114
REMARK   48  A    between atoms: _114  and  _115
REMARK   49  A    between atoms: _115  and  _116
REMARK   50  A    between atoms: _116  and  _117
REMARK   51  A    between atoms: _117  and  _118
REMARK   52  A    between atoms: _122  and  _124
REMARK   53  A    between atoms: _124  and  _125
REMARK   54  A    between atoms: _124  and  _127
REMARK   55  A    between atoms: _127  and  _128
REMARK   56  A    between atoms: _128  and  _129
REMARK   57  A    between atoms: _132  and  _134
REMARK   58  A    between atoms: _134  and  _135
REMARK   59  A    between atoms: _134  and  _137
REMARK   60  A    between atoms: _137  and  _138
REMARK   61  A    between atoms: _140  and  _142
REMARK   62  A    between atoms: _142  and  _143
REMARK   63  A    between atoms: _142  and  _145
REMARK   64  A    between atoms: _145  and  _146
REMARK   65  A    between atoms: _151  and  _152
REMARK   66  A    between atoms: _154  and  _156
REMARK   67  A    between atoms: _156  and  _157
REMARK   68  A    between atoms: _156  and  _159
REMARK   69  A    between atoms: _159  and  _160
REMARK   70  A    between atoms: _160  and  _161
REMARK   71  A    between atoms: _161  and  _162
REMARK   72  A    between atoms: _171  and  _173
REMARK   73  A    between atoms: _173  and  _174
REMARK   74  A    between atoms: _173  and  _176
REMARK   75  A    between atoms: _176  and  _177
REMARK   76  A    between atoms: _177  and  _178
REMARK   77  A    between atoms: _178  and  _179
REMARK   78  A    between atoms: _179  and  _180
REMARK   79  A    between atoms: _184  and  _186
REMARK   80  A    between atoms: _186  and  _187
REMARK   81  A    between atoms: _186  and  _189
REMARK   82  A    between atoms: _189  and  _190
REMARK   83  A    between atoms: _190  and  _191
REMARK   84  A    between atoms: _191  and  _192
REMARK   85  A    between atoms: _192  and  CA_265
REMARK   86  A    between atoms: _194  and  _196
REMARK   87  A    between atoms: _196  and  _197
REMARK   88  A    between atoms: _196  and  _199
REMARK   89  A    between atoms: _199  and  _200
REMARK   90  A    between atoms: _200  and  _201
REMARK   91  A    between atoms: _208  and  _209
REMARK   92  A    between atoms: _215  and  _217
REMARK   93  A    between atoms: _217  and  _218
REMARK   94  A    between atoms: _217  and  _220
REMARK   95  A    between atoms: _220  and  _221
REMARK   96  A    between atoms: _223  and  _225
REMARK   97  A    between atoms: _225  and  _226
REMARK   98  A    between atoms: _225  and  _228
REMARK   99  A    between atoms: _228  and  _229
REMARK  100  A    between atoms: _229  and  _230
REMARK  101  A    between atoms: _230  and  _231
REMARK  102  A    between atoms: _231  and  _232
REMARK  103  A    between atoms: _236  and  _238
REMARK  104  A    between atoms: _238  and  _239
REMARK  105  A    between atoms: _238  and  _241
REMARK  106  A    between atoms: _241  and  _242
REMARK  107  A    between atoms: _245  and  _247
REMARK  108  A    between atoms: _247  and  _248
REMARK  109  A    between atoms: _247  and  _250
REMARK  110  A    between atoms: _250  and  _251
REMARK  111  A    between atoms: _253  and  _255
REMARK  112  A    between atoms: _255  and  _256
REMARK  113  A    between atoms: _255  and  _258
REMARK  114  A    between atoms: _258  and  _259
REMARK  115  A    between atoms: _259  and  _260
REMARK                            x       y       z     vdW  Elec       q    Type
REMARK                         _______ _______ _______ _____ _____    ______ ____
ROOT
ATOM      1  CA  ASN A   2    -101.001   4.570 -16.847  0.00  0.00    +0.158 C 
ENDROOT
BRANCH   1   4
ATOM      2  C   ASP A   1    -102.742   6.270 -16.671  0.00  0.00    +0.239 C 
ATOM      3  O   ASP A   1    -102.711   6.263 -15.448  0.00  0.00    -0.274 OA
ATOM      4  N   ASN A   2    -102.016   5.445 -17.419  0.00  0.00    -0.297 N 
ATOM      5  H   ASN A   2    -102.178   5.423 -18.446  0.00  0.00    +0.150 HD
BRANCH   2   6
ATOM      6  CA  ASP A   1    -103.653   7.228 -17.417  0.00  0.00    +0.156 C 
BRANCH   6   7
ATOM      7  N   ASP A   1    -104.801   7.575 -16.589  0.00  0.00    -0.238 NA
ATOM      8  H   ASP A   1    -104.791   8.480 -16.077  0.00  0.00    +0.142 HD
ENDBRANCH   6   7
BRANCH   6   9
ATOM      9  CB  ASP A   1    -102.876   8.495 -17.796  0.00  0.00    +0.140 C 
BRANCH   9  10
ATOM     10  CG  ASP A   1    -101.816   8.240 -18.844  0.00  0.00    +0.367 C 
ATOM     11  OD2 ASP A   1    -100.762   8.922 -18.833  0.00  0.00    -0.246 OA
ATOM     12  OD1 ASP A   1    -102.053   7.347 -19.695  0.00  0.00    -0.246 OA
ENDBRANCH   9  10
ENDBRANCH   6   9
ENDBRANCH   2   6
ENDBRANCH   1   4
BRANCH   1  13
ATOM     13  C   ASN A   2    -101.540   3.725 -15.716  0.00  0.00    +0.241 C 
ATOM     14  O   ASN A   2    -100.902   3.554 -14.685  0.00  0.00    -0.273 OA
ATOM     15  N   GLU A   3    -102.720   3.168 -15.931  0.00  0.00    -0.298 N 
ATOM     16  H   GLU A   3    -103.184   3.290 -16.854  0.00  0.00    +0.150 HD
BRANCH  15  17
ATOM     17  CA  GLU A   3    -103.377   2.389 -14.897  0.00  0.00    +0.137 C 
BRANCH  17  18
ATOM     18  C   GLU A   3    -102.686   1.027 -14.750  0.00  0.00    +0.227 C 
ATOM     19  O   GLU A   3    -102.506   0.535 -13.633  0.00  0.00    -0.286 OA
ENDBRANCH  17  18
BRANCH  17  20
ATOM     20  CB  GLU A   3    -104.868   2.264 -15.209  0.00  0.00    +0.039 C 
BRANCH  20  21
ATOM     21  CG  GLU A   3    -105.665   1.513 -14.163  0.00  0.00    +0.116 C 
BRANCH  21  22
ATOM     22  CD  GLU A   3    -105.735   2.231 -12.825  0.00  0.00    +0.365 C 
ATOM     23  OE2 GLU A   3    -106.179   1.612 -11.847  0.00  0.00    -0.246 OA
ATOM     24  OE1 GLU A   3    -105.353   3.402 -12.748  0.00  0.00    -0.246 OA
ENDBRANCH  21  22
ENDBRANCH  20  21
ENDBRANCH  17  20
ENDBRANCH  15  17
ENDBRANCH   1  13
BRANCH   1  25
ATOM     25  CB  ASN A   2     -99.800   5.384 -16.371  0.00  0.00    +0.114 C 
BRANCH  25  26
ATOM     26  CG  ASN A   2     -99.199   6.205 -17.489  0.00  0.00    +0.222 C 
ATOM     27  ND2 ASN A   2     -98.357   7.164 -17.150  0.00  0.00    -0.329 N 
ATOM     28 HD21 ASN A   2     -98.133   7.329 -16.148  0.00  0.00    +0.145 HD
ATOM     29 HD22 ASN A   2     -97.918   7.755 -17.885  0.00  0.00    +0.145 HD
ATOM     30  OD1 ASN A   2     -99.502   5.964 -18.655  0.00  0.00    -0.275 OA
ENDBRANCH  25  26
ENDBRANCH   1  25
TORSDOF 13
REMARK  Name = ../refined-set-2016/4ayu/4ayu_pocket.pdb
REMARK  115 active torsions:
REMARK  status: ('A' for Active; 'I' for Inactive)
REMARK    1  A    between atoms: _1  and  _3
REMARK    2  A    between atoms: _3  and  _4
REMARK    3  A    between atoms: _7  and  _9
REMARK    4  A    between atoms: _9  and  _10
REMARK    5  A    between atoms: _9  and  _12
REMARK    6  A    between atoms: _12  and  _13
REMARK    7  A    between atoms: _18  and  _19
REMARK    8  A    between atoms: _21  and  _23
REMARK    9  A    between atoms: _23  and  _24
REMARK   10  A    between atoms: _23  and  _26
REMARK   11  A    between atoms: _26  and  _27
REMARK   12  A    between atoms: _29  and  _31
REMARK   13  A    between atoms: _31  and  _32
REMARK   14  A    between atoms: _31  and  _34
REMARK   15  A    between atoms: _34  and  _35
REMARK   16  A    between atoms: _37  and  _39
REMARK   17  A    between atoms: _39  and  _40
REMARK   18  A    between atoms: _39  and  _42
REMARK   19  A    between atoms: _42  and  _43
REMARK   20  A    between atoms: _48  and  _50
REMARK   21  A    between atoms: _50  and  _51
REMARK   22  A    between atoms: _50  and  _53
REMARK   23  A    between atoms: _53  and  _54
REMARK   24  A    between atoms: _57  and  _59
REMARK   25  A    between atoms: _59  and  _60
REMARK   26  A    between atoms: _59  and  _62
REMARK   27  A    between atoms: _62  and  _63
REMARK   28  A    between atoms: _68  and  _70
REMARK   29  A    between atoms: _70  and  _71
REMARK   30  A    between atoms: _70  and  _73
REMARK   31  A    between atoms: _73  and  _74
REMARK   32  A    between atoms: _74  and  _75
REMARK   33  A    between atoms: _78  and  _80
REMARK   34  A    between atoms: _80  and  _81
REMARK   35  A    between atoms: _80  and  _83
REMARK   36  A    between atoms: _83  and  _84
REMARK   37  A    between atoms: _87  and  _89
REMARK   38  A    between atoms: _89  and  _90
REMARK   39  A    between atoms: _89  and  _92
REMARK   40  A    between atoms: _95  and  _97
REMARK   41  A    between atoms: _97  and  _98
REMARK   42  A    between atoms: _97  and  _100
REMARK   43  A    between atoms: _100  and  _101
REMARK   44  A    between atoms: _106  and  _107
REMARK   45  A    between atoms: _109  and  _111
REMARK   46  A    between atoms: _111  and  _112
REMARK   47  A    between atoms: _111  and  _114
REMARK   48  A    between atoms: _114  and  _115
REMARK   49  A    between atoms: _115  and  _116
REMARK   50  A    between atoms: _116  and  _117
REMARK   51  A    between atoms: _117  and  _118
REMARK   52  A    between atoms: _122  and  _124
REMARK   53  A    between atoms: _124  and  _125
REMARK   54  A    between atoms: _124  and  _127
REMARK   55  A    between atoms: _127  and  _128
REMARK   56  A    between atoms: _128  and  _129
REMARK   57  A    between atoms: _132  and  _134
REMARK   58  A    between atoms: _134  and  _135
REMARK   59  A    between atoms: _134  and  _137
REMARK   60  A    between atoms: _137  and  _138
REMARK   61  A    between atoms: _140  and  _142
REMARK   62  A    between atoms: _142  and  _143
REMARK   63  A    between atoms: _142  and  _145
REMARK   64  A    between atoms: _145  and  _146
REMARK   65  A    between atoms: _151  and  _152
REMARK   66  A    between atoms: _154  and  _156
REMARK   67  A    between atoms: _156  and  _157
REMARK   68  A    between atoms: _156  and  _159
REMARK   69  A    between atoms: _159  and  _160
REMARK   70  A    between atoms: _160  and  _161
REMARK   71  A    between atoms: _161  and  _162
REMARK   72  A    between atoms: _171  and  _173
REMARK   73  A    between atoms: _173  and  _174
REMARK   74  A    between atoms: _173  and  _176
REMARK   75  A    between atoms: _176  and  _177
REMARK   76  A    between atoms: _177  and  _178
REMARK   77  A    between atoms: _178  and  _179
REMARK   78  A    between atoms: _179  and  _180
REMARK   79  A    between atoms: _184  and  _186
REMARK   80  A    between atoms: _186  and  _187
REMARK   81  A    between atoms: _186  and  _189
REMARK   82  A    between atoms: _189  and  _190
REMARK   83  A    between atoms: _190  and  _191
REMARK   84  A    between atoms: _191  and  _192
REMARK   85  A    between atoms: _192  and  CA_265
REMARK   86  A    between atoms: _194  and  _196
REMARK   87  A    between atoms: _196  and  _197
REMARK   88  A    between atoms: _196  and  _199
REMARK   89  A    between atoms: _199  and  _200
REMARK   90  A    between atoms: _200  and  _201
REMARK   91  A    between atoms: _208  and  _209
REMARK   92  A    between atoms: _215  and  _217
REMARK   93  A    between atoms: _217  and  _218
REMARK   94  A    between atoms: _217  and  _220
REMARK   95  A    between atoms: _220  and  _221
REMARK   96  A    between atoms: _223  and  _225
REMARK   97  A    between atoms: _225  and  _226
REMARK   98  A    between atoms: _225  and  _228
REMARK   99  A    between atoms: _228  and  _229
REMARK  100  A    between atoms: _229  and  _230
REMARK  101  A    between atoms: _230  and  _231
REMARK  102  A    between atoms: _231  and  _232
REMARK  103  A    between atoms: _236  and  _238
REMARK  104  A    between atoms: _238  and  _239
REMARK  105  A    between atoms: _238  and  _241
REMARK  106  A    between atoms: _241  and  _242
REMARK  107  A    between atoms: _245  and  _247
REMARK  108  A    between atoms: _247  and  _248
REMARK  109  A    between atoms: _247  and  _250
REMARK  110  A    between atoms: _250  and  _251
REMARK  111  A    between atoms: _253  and  _255
REMARK  112  A    between atoms: _255  and  _256
REMARK  113  A    between atoms: _255  and  _258
REMARK  114  A    between atoms: _258  and  _259
REMARK  115  A    between atoms: _259  and  _260
REMARK                            x       y       z     vdW  Elec       q    Type
REMARK                         _______ _______ _______ _____ _____    ______ ____
ROOT
ATOM      1  CA  TYR A   3     -92.919  -0.037 -20.624  0.00  0.00    +0.153 C 
ENDROOT
BRANCH   1   3
ATOM      2  C   VAL A   2     -94.758  -1.608 -20.302  0.00  0.00    +0.241 C 
ATOM      3  N   TYR A   3     -93.642  -1.048 -19.859  0.00  0.00    -0.297 N 
ATOM      4  H   TYR A   3     -93.268  -1.339 -18.933  0.00  0.00    +0.150 HD
ATOM      5  O   VAL A   2     -95.175  -1.495 -21.468  0.00  0.00    -0.273 OA
BRANCH   2   6
ATOM      6  CA  VAL A   2     -95.546  -2.388 -19.263  0.00  0.00    +0.148 C 
BRANCH   6   9
ATOM      7  C   LEU A   1     -97.172  -0.965 -18.140  0.00  0.00    +0.238 C 
ATOM      8  O   LEU A   1     -96.453  -0.826 -17.135  0.00  0.00    -0.274 OA
ATOM      9  N   VAL A   2     -96.851  -1.755 -19.158  0.00  0.00    -0.297 N 
ATOM     10  H   VAL A   2     -97.555  -1.926 -19.904  0.00  0.00    +0.150 HD
BRANCH   7  11
ATOM     11  CA  LEU A   1     -98.505  -0.241 -18.264  0.00  0.00    +0.145 C 
BRANCH  11  12
ATOM     12  N   LEU A   1     -99.330  -0.478 -17.089  0.00  0.00    -0.238 NA
ATOM     13  H   LEU A   1     -98.886  -0.528 -16.150  0.00  0.00    +0.142 HD
ENDBRANCH  11  12
BRANCH  11  14
ATOM     14  CB  LEU A   1     -98.250   1.261 -18.451  0.00  0.00    +0.026 C 
BRANCH  14  15
ATOM     15  CG  LEU A   1     -97.142   1.687 -19.412  0.00  0.00    +0.002 C 
ATOM     16  CD2 LEU A   1     -96.846   3.197 -19.260  0.00  0.00    +0.000 C 
ATOM     17  CD1 LEU A   1     -97.501   1.366 -20.855  0.00  0.00    +0.000 C 
ENDBRANCH  14  15
ENDBRANCH  11  14
ENDBRANCH   7  11
ENDBRANCH   6   9
BRANCH   6  18
ATOM     18  CB  VAL A   2     -95.650  -3.852 -19.688  0.00  0.00    +0.027 C 
ATOM     19  CG2 VAL A   2     -96.597  -4.615 -18.758  0.00  0.00    +0.002 C 
ATOM     20  CG1 VAL A   2     -94.260  -4.491 -19.704  0.00  0.00    +0.002 C 
ENDBRANCH   6  18
ENDBRANCH   2   6
ENDBRANCH   1   3
BRANCH   1  21
ATOM     21  C   TYR A   3     -91.443  -0.389 -20.630  0.00  0.00    +0.241 C 
ATOM     22  O   TYR A   3     -90.850  -0.646 -19.574  0.00  0.00    -0.273 OA
ATOM     23  N   LYS A   4     -90.845  -0.392 -21.814  0.00  0.00    -0.297 N 
ATOM     24  H   LYS A   4     -91.406  -0.177 -22.663  0.00  0.00    +0.150 HD
BRANCH  23  25
ATOM     25  CA  LYS A   4     -89.427  -0.687 -21.960  0.00  0.00    +0.149 C 
BRANCH  25  26
ATOM     26  C   LYS A   4     -88.634   0.606 -21.964  0.00  0.00    +0.241 C 
ATOM     27  N   GLU A   5     -87.793   0.819 -20.962  0.00  0.00    -0.298 N 
ATOM     28  H   GLU A   5     -87.632   0.068 -20.261  0.00  0.00    +0.150 HD
ATOM     29  O   LYS A   4     -88.768   1.407 -22.871  0.00  0.00    -0.273 OA
BRANCH  27  30
ATOM     30  CA  GLU A   5     -87.088   2.094 -20.826  0.00  0.00    +0.137 C 
BRANCH  30  31
ATOM     31  C   GLU A   5     -85.904   2.218 -21.787  0.00  0.00    +0.227 C 
ATOM     32  O   GLU A   5     -85.591   3.290 -22.299  0.00  0.00    -0.286 OA
ENDBRANCH  30  31
BRANCH  30  33
ATOM     33  CB  GLU A   5     -86.543   2.238 -19.399  0.00  0.00    +0.039 C 
BRANCH  33  34
ATOM     34  CG  GLU A   5     -87.567   2.106 -18.289  0.00  0.00    +0.116 C 
BRANCH  34  35
ATOM     35  CD  GLU A   5     -88.451   3.318 -18.134  0.00  0.00    +0.365 C 
ATOM     36  OE2 GLU A   5     -89.434   3.229 -17.366  0.00  0.00    -0.246 OA
ATOM     37  OE1 GLU A   5     -88.165   4.366 -18.752  0.00  0.00    -0.246 OA
ENDBRANCH  34  35
ENDBRANCH  33  34
ENDBRANCH  30  33
ENDBRANCH  27  30
ENDBRANCH  25  26
BRANCH  25  38
ATOM     38  CB  LYS A   4     -89.183  -1.468 -23.268  0.00  0.00    +0.029 C 
BRANCH  38  39
ATOM     39  CG  LYS A   4     -87.775  -2.004 -23.391  0.00  0.00    +0.000 C 
BRANCH  39  40
ATOM     40  CD  LYS A   4     -87.568  -3.136 -22.417  0.00  0.00    -0.024 C 
BRANCH  40  41
ATOM     41  CE  LYS A   4     -86.157  -3.703 -22.486  0.00  0.00    -0.086 C 
BRANCH  41  42
ATOM     42  NZ  LYS A   4     -85.911  -4.389 -23.772  0.00  0.00    +0.380 N 
ATOM     43  HZ1 LYS A   4     -84.941  -4.763 -23.784  0.00  0.00    -0.089 HD
ATOM     44  HZ2 LYS A   4     -86.587  -5.172 -23.881  0.00  0.00    -0.089 HD
ATOM     45  HZ3 LYS A   4     -86.033  -3.713 -24.553  0.00  0.00    -0.089 HD
ENDBRANCH  41  42
ENDBRANCH  40  41
ENDBRANCH  39  40
ENDBRANCH  38  39
ENDBRANCH  25  38
ENDBRANCH  23  25
ENDBRANCH   1  21
BRANCH   1  46
ATOM     46  CB  TYR A   3     -93.106   1.325 -19.966  0.00  0.00    +0.055 C 
BRANCH  46  47
ATOM     47  CG  TYR A   3     -92.631   2.520 -20.757  0.00  0.00    -0.020 A 
ATOM     48  CD2 TYR A   3     -91.519   3.247 -20.359  0.00  0.00    -0.001 A 
ATOM     49  CE2 TYR A   3     -91.104   4.372 -21.070  0.00  0.00    +0.036 A 
ATOM     50  CZ  TYR A   3     -91.823   4.785 -22.164  0.00  0.00    +0.134 A 
ATOM     51  CE1 TYR A   3     -92.937   4.081 -22.564  0.00  0.00    +0.036 A 
ATOM     52  CD1 TYR A   3     -93.340   2.972 -21.858  0.00  0.00    -0.001 A 
BRANCH  50  53
ATOM     53  OH  TYR A   3     -91.458   5.910 -22.875  0.00  0.00    -0.506 OA
ATOM     54  HH  TYR A   3     -91.478   6.698 -22.276  0.00  0.00    +0.292 HD
ENDBRANCH  50  53
ENDBRANCH  46  47
ENDBRANCH   1  46
TORSDOF 24
REMARK  Name = ../refined-set-2016/4ayu/4ayu_pocket.pdb
REMARK  115 active torsions:
REMARK  status: ('A' for Active; 'I' for Inactive)
REMARK    1  A    between atoms: _1  and  _3
REMARK    2  A    between atoms: _3  and  _4
REMARK    3  A    between atoms: _7  and  _9
REMARK    4  A    between atoms: _9  and  _10
REMARK    5  A    between atoms: _9  and  _12
REMARK    6  A    between atoms: _12  and  _13
REMARK    7  A    between atoms: _18  and  _19
REMARK    8  A    between atoms: _21  and  _23
REMARK    9  A    between atoms: _23  and  _24
REMARK   10  A    between atoms: _23  and  _26
REMARK   11  A    between atoms: _26  and  _27
REMARK   12  A    between atoms: _29  and  _31
REMARK   13  A    between atoms: _31  and  _32
REMARK   14  A    between atoms: _31  and  _34
REMARK   15  A    between atoms: _34  and  _35
REMARK   16  A    between atoms: _37  and  _39
REMARK   17  A    between atoms: _39  and  _40
REMARK   18  A    between atoms: _39  and  _42
REMARK   19  A    between atoms: _42  and  _43
REMARK   20  A    between atoms: _48  and  _50
REMARK   21  A    between atoms: _50  and  _51
REMARK   22  A    between atoms: _50  and  _53
REMARK   23  A    between atoms: _53  and  _54
REMARK   24  A    between atoms: _57  and  _59
REMARK   25  A    between atoms: _59  and  _60
REMARK   26  A    between atoms: _59  and  _62
REMARK   27  A    between atoms: _62  and  _63
REMARK   28  A    between atoms: _68  and  _70
REMARK   29  A    between atoms: _70  and  _71
REMARK   30  A    between atoms: _70  and  _73
REMARK   31  A    between atoms: _73  and  _74
REMARK   32  A    between atoms: _74  and  _75
REMARK   33  A    between atoms: _78  and  _80
REMARK   34  A    between atoms: _80  and  _81
REMARK   35  A    between atoms: _80  and  _83
REMARK   36  A    between atoms: _83  and  _84
REMARK   37  A    between atoms: _87  and  _89
REMARK   38  A    between atoms: _89  and  _90
REMARK   39  A    between atoms: _89  and  _92
REMARK   40  A    between atoms: _95  and  _97
REMARK   41  A    between atoms: _97  and  _98
REMARK   42  A    between atoms: _97  and  _100
REMARK   43  A    between atoms: _100  and  _101
REMARK   44  A    between atoms: _106  and  _107
REMARK   45  A    between atoms: _109  and  _111
REMARK   46  A    between atoms: _111  and  _112
REMARK   47  A    between atoms: _111  and  _114
REMARK   48  A    between atoms: _114  and  _115
REMARK   49  A    between atoms: _115  and  _116
REMARK   50  A    between atoms: _116  and  _117
REMARK   51  A    between atoms: _117  and  _118
REMARK   52  A    between atoms: _122  and  _124
REMARK   53  A    between atoms: _124  and  _125
REMARK   54  A    between atoms: _124  and  _127
REMARK   55  A    between atoms: _127  and  _128
REMARK   56  A    between atoms: _128  and  _129
REMARK   57  A    between atoms: _132  and  _134
REMARK   58  A    between atoms: _134  and  _135
REMARK   59  A    between atoms: _134  and  _137
REMARK   60  A    between atoms: _137  and  _138
REMARK   61  A    between atoms: _140  and  _142
REMARK   62  A    between atoms: _142  and  _143
REMARK   63  A    between atoms: _142  and  _145
REMARK   64  A    between atoms: _145  and  _146
REMARK   65  A    between atoms: _151  and  _152
REMARK   66  A    between atoms: _154  and  _156
REMARK   67  A    between atoms: _156  and  _157
REMARK   68  A    between atoms: _156  and  _159
REMARK   69  A    between atoms: _159  and  _160
REMARK   70  A    between atoms: _160  and  _161
REMARK   71  A    between atoms: _161  and  _162
REMARK   72  A    between atoms: _171  and  _173
REMARK   73  A    between atoms: _173  and  _174
REMARK   74  A    between atoms: _173  and  _176
REMARK   75  A    between atoms: _176  and  _177
REMARK   76  A    between atoms: _177  and  _178
REMARK   77  A    between atoms: _178  and  _179
REMARK   78  A    between atoms: _179  and  _180
REMARK   79  A    between atoms: _184  and  _186
REMARK   80  A    between atoms: _186  and  _187
REMARK   81  A    between atoms: _186  and  _189
REMARK   82  A    between atoms: _189  and  _190
REMARK   83  A    between atoms: _190  and  _191
REMARK   84  A    between atoms: _191  and  _192
REMARK   85  A    between atoms: _192  and  CA_265
REMARK   86  A    between atoms: _194  and  _196
REMARK   87  A    between atoms: _196  and  _197
REMARK   88  A    between atoms: _196  and  _199
REMARK   89  A    between atoms: _199  and  _200
REMARK   90  A    between atoms: _200  and  _201
REMARK   91  A    between atoms: _208  and  _209
REMARK   92  A    between atoms: _215  and  _217
REMARK   93  A    between atoms: _217  and  _218
REMARK   94  A    between atoms: _217  and  _220
REMARK   95  A    between atoms: _220  and  _221
REMARK   96  A    between atoms: _223  and  _225
REMARK   97  A    between atoms: _225  and  _226
REMARK   98  A    between atoms: _225  and  _228
REMARK   99  A    between atoms: _228  and  _229
REMARK  100  A    between atoms: _229  and  _230
REMARK  101  A    between atoms: _230  and  _231
REMARK  102  A    between atoms: _231  and  _232
REMARK  103  A    between atoms: _236  and  _238
REMARK  104  A    between atoms: _238  and  _239
REMARK  105  A    between atoms: _238  and  _241
REMARK  106  A    between atoms: _241  and  _242
REMARK  107  A    between atoms: _245  and  _247
REMARK  108  A    between atoms: _247  and  _248
REMARK  109  A    between atoms: _247  and  _250
REMARK  110  A    between atoms: _250  and  _251
REMARK  111  A    between atoms: _253  and  _255
REMARK  112  A    between atoms: _255  and  _256
REMARK  113  A    between atoms: _255  and  _258
REMARK  114  A    between atoms: _258  and  _259
REMARK  115  A    between atoms: _259  and  _260
REMARK                            x       y       z     vdW  Elec       q    Type
REMARK                         _______ _______ _______ _____ _____    ______ ____
ROOT
ATOM      1  CA  SER A   1     -90.917  -1.013 -16.012  0.00  0.00    +0.163 C 
ENDROOT
BRANCH   1   2
ATOM      2  N   SER A   1     -90.126  -1.707 -17.027  0.00  0.00    -0.237 NA
ATOM      3  H   SER A   1     -90.381  -1.607 -18.030  0.00  0.00    +0.142 HD
ENDBRANCH   1   2
BRANCH   1   4
ATOM      4  C   SER A   1     -92.360  -1.480 -16.031  0.00  0.00    +0.227 C 
ATOM      5  O   SER A   1     -92.923  -1.797 -17.089  0.00  0.00    -0.287 OA
ENDBRANCH   1   4
BRANCH   1   6
ATOM      6  CB  SER A   1     -90.896   0.498 -16.237  0.00  0.00    +0.162 C 
BRANCH   6   7
ATOM      7  OG  SER A   1     -89.601   1.018 -16.026  0.00  0.00    -0.380 OA
ATOM      8  H   SER A   1     -89.611   1.996 -16.177  0.00  0.00    +0.211 HD
ENDBRANCH   6   7
ENDBRANCH   1   6
TORSDOF 4
REMARK  Name = ../refined-set-2016/4ayu/4ayu_pocket.pdb
REMARK  115 active torsions:
REMARK  status: ('A' for Active; 'I' for Inactive)
REMARK    1  A    between atoms: _1  and  _3
REMARK    2  A    between atoms: _3  and  _4
REMARK    3  A    between atoms: _7  and  _9
REMARK    4  A    between atoms: _9  and  _10
REMARK    5  A    between atoms: _9  and  _12
REMARK    6  A    between atoms: _12  and  _13
REMARK    7  A    between atoms: _18  and  _19
REMARK    8  A    between atoms: _21  and  _23
REMARK    9  A    between atoms: _23  and  _24
REMARK   10  A    between atoms: _23  and  _26
REMARK   11  A    between atoms: _26  and  _27
REMARK   12  A    between atoms: _29  and  _31
REMARK   13  A    between atoms: _31  and  _32
REMARK   14  A    between atoms: _31  and  _34
REMARK   15  A    between atoms: _34  and  _35
REMARK   16  A    between atoms: _37  and  _39
REMARK   17  A    between atoms: _39  and  _40
REMARK   18  A    between atoms: _39  and  _42
REMARK   19  A    between atoms: _42  and  _43
REMARK   20  A    between atoms: _48  and  _50
REMARK   21  A    between atoms: _50  and  _51
REMARK   22  A    between atoms: _50  and  _53
REMARK   23  A    between atoms: _53  and  _54
REMARK   24  A    between atoms: _57  and  _59
REMARK   25  A    between atoms: _59  and  _60
REMARK   26  A    between atoms: _59  and  _62
REMARK   27  A    between atoms: _62  and  _63
REMARK   28  A    between atoms: _68  and  _70
REMARK   29  A    between atoms: _70  and  _71
REMARK   30  A    between atoms: _70  and  _73
REMARK   31  A    between atoms: _73  and  _74
REMARK   32  A    between atoms: _74  and  _75
REMARK   33  A    between atoms: _78  and  _80
REMARK   34  A    between atoms: _80  and  _81
REMARK   35  A    between atoms: _80  and  _83
REMARK   36  A    between atoms: _83  and  _84
REMARK   37  A    between atoms: _87  and  _89
REMARK   38  A    between atoms: _89  and  _90
REMARK   39  A    between atoms: _89  and  _92
REMARK   40  A    between atoms: _95  and  _97
REMARK   41  A    between atoms: _97  and  _98
REMARK   42  A    between atoms: _97  and  _100
REMARK   43  A    between atoms: _100  and  _101
REMARK   44  A    between atoms: _106  and  _107
REMARK   45  A    between atoms: _109  and  _111
REMARK   46  A    between atoms: _111  and  _112
REMARK   47  A    between atoms: _111  and  _114
REMARK   48  A    between atoms: _114  and  _115
REMARK   49  A    between atoms: _115  and  _116
REMARK   50  A    between atoms: _116  and  _117
REMARK   51  A    between atoms: _117  and  _118
REMARK   52  A    between atoms: _122  and  _124
REMARK   53  A    between atoms: _124  and  _125
REMARK   54  A    between atoms: _124  and  _127
REMARK   55  A    between atoms: _127  and  _128
REMARK   56  A    between atoms: _128  and  _129
REMARK   57  A    between atoms: _132  and  _134
REMARK   58  A    between atoms: _134  and  _135
REMARK   59  A    between atoms: _134  and  _137
REMARK   60  A    between atoms: _137  and  _138
REMARK   61  A    between atoms: _140  and  _142
REMARK   62  A    between atoms: _142  and  _143
REMARK   63  A    between atoms: _142  and  _145
REMARK   64  A    between atoms: _145  and  _146
REMARK   65  A    between atoms: _151  and  _152
REMARK   66  A    between atoms: _154  and  _156
REMARK   67  A    between atoms: _156  and  _157
REMARK   68  A    between atoms: _156  and  _159
REMARK   69  A    between atoms: _159  and  _160
REMARK   70  A    between atoms: _160  and  _161
REMARK   71  A    between atoms: _161  and  _162
REMARK   72  A    between atoms: _171  and  _173
REMARK   73  A    between atoms: _173  and  _174
REMARK   74  A    between atoms: _173  and  _176
REMARK   75  A    between atoms: _176  and  _177
REMARK   76  A    between atoms: _177  and  _178
REMARK   77  A    between atoms: _178  and  _179
REMARK   78  A    between atoms: _179  and  _180
REMARK   79  A    between atoms: _184  and  _186
REMARK   80  A    between atoms: _186  and  _187
REMARK   81  A    between atoms: _186  and  _189
REMARK   82  A    between atoms: _189  and  _190
REMARK   83  A    between atoms: _190  and  _191
REMARK   84  A    between atoms: _191  and  _192
REMARK   85  A    between atoms: _192  and  CA_265
REMARK   86  A    between atoms: _194  and  _196
REMARK   87  A    between atoms: _196  and  _197
REMARK   88  A    between atoms: _196  and  _199
REMARK   89  A    between atoms: _199  and  _200
REMARK   90  A    between atoms: _200  and  _201
REMARK   91  A    between atoms: _208  and  _209
REMARK   92  A    between atoms: _215  and  _217
REMARK   93  A    between atoms: _217  and  _218
REMARK   94  A    between atoms: _217  and  _220
REMARK   95  A    between atoms: _220  and  _221
REMARK   96  A    between atoms: _223  and  _225
REMARK   97  A    between atoms: _225  and  _226
REMARK   98  A    between atoms: _225  and  _228
REMARK   99  A    between atoms: _228  and  _229
REMARK  100  A    between atoms: _229  and  _230
REMARK  101  A    between atoms: _230  and  _231
REMARK  102  A    between atoms: _231  and  _232
REMARK  103  A    between atoms: _236  and  _238
REMARK  104  A    between atoms: _238  and  _239
REMARK  105  A    between atoms: _238  and  _241
REMARK  106  A    between atoms: _241  and  _242
REMARK  107  A    between atoms: _245  and  _247
REMARK  108  A    between atoms: _247  and  _248
REMARK  109  A    between atoms: _247  and  _250
REMARK  110  A    between atoms: _250  and  _251
REMARK  111  A    between atoms: _253  and  _255
REMARK  112  A    between atoms: _255  and  _256
REMARK  113  A    between atoms: _255  and  _258
REMARK  114  A    between atoms: _258  and  _259
REMARK  115  A    between atoms: _259  and  _260
REMARK                            x       y       z     vdW  Elec       q    Type
REMARK                         _______ _______ _______ _____ _____    ______ ____
ROOT
ATOM      1  CG  TYR A   1     -96.047   3.169 -15.225  0.00  0.00    -0.020 A 
ATOM      2  CD2 TYR A   1     -95.997   4.502 -14.818  0.00  0.00    -0.001 A 
ATOM      3  CE2 TYR A   1     -95.000   5.328 -15.253  0.00  0.00    +0.036 A 
ATOM      4  CZ  TYR A   1     -94.037   4.850 -16.098  0.00  0.00    +0.134 A 
ATOM      5  CE1 TYR A   1     -94.068   3.556 -16.532  0.00  0.00    +0.036 A 
ATOM      6  CD1 TYR A   1     -95.062   2.723 -16.088  0.00  0.00    -0.001 A 
ENDROOT
BRANCH   4   7
ATOM      7  OH  TYR A   1     -93.041   5.685 -16.544  0.00  0.00    -0.506 OA
ATOM      8  HH  TYR A   1     -93.443   6.441 -17.041  0.00  0.00    +0.292 HD
ENDBRANCH   4   7
BRANCH   1   9
ATOM      9  CB  TYR A   1     -97.169   2.260 -14.772  0.00  0.00    +0.051 C 
BRANCH   9  10
ATOM     10  CA  TYR A   1     -96.787   1.084 -13.858  0.00  0.00    +0.137 C 
BRANCH  10  11
ATOM     11  N   TYR A   1     -95.997   0.075 -14.558  0.00  0.00    -0.239 NA
ATOM     12  H   TYR A   1     -96.256  -0.187 -15.531  0.00  0.00    +0.142 HD
ENDBRANCH  10  11
BRANCH  10  13
ATOM     13  C   TYR A   1     -98.076   0.427 -13.384  0.00  0.00    +0.224 C 
ATOM     14  O   TYR A   1     -98.710  -0.303 -14.132  0.00  0.00    -0.287 OA
ENDBRANCH  10  13
ENDBRANCH   9  10
ENDBRANCH   1   9
TORSDOF 5
REMARK  Name = ../refined-set-2016/4ayu/4ayu_pocket.pdb
REMARK  115 active torsions:
REMARK  status: ('A' for Active; 'I' for Inactive)
REMARK    1  A    between atoms: _1  and  _3
REMARK    2  A    between atoms: _3  and  _4
REMARK    3  A    between atoms: _7  and  _9
REMARK    4  A    between atoms: _9  and  _10
REMARK    5  A    between atoms: _9  and  _12
REMARK    6  A    between atoms: _12  and  _13
REMARK    7  A    between atoms: _18  and  _19
REMARK    8  A    between atoms: _21  and  _23
REMARK    9  A    between atoms: _23  and  _24
REMARK   10  A    between atoms: _23  and  _26
REMARK   11  A    between atoms: _26  and  _27
REMARK   12  A    between atoms: _29  and  _31
REMARK   13  A    between atoms: _31  and  _32
REMARK   14  A    between atoms: _31  and  _34
REMARK   15  A    between atoms: _34  and  _35
REMARK   16  A    between atoms: _37  and  _39
REMARK   17  A    between atoms: _39  and  _40
REMARK   18  A    between atoms: _39  and  _42
REMARK   19  A    between atoms: _42  and  _43
REMARK   20  A    between atoms: _48  and  _50
REMARK   21  A    between atoms: _50  and  _51
REMARK   22  A    between atoms: _50  and  _53
REMARK   23  A    between atoms: _53  and  _54
REMARK   24  A    between atoms: _57  and  _59
REMARK   25  A    between atoms: _59  and  _60
REMARK   26  A    between atoms: _59  and  _62
REMARK   27  A    between atoms: _62  and  _63
REMARK   28  A    between atoms: _68  and  _70
REMARK   29  A    between atoms: _70  and  _71
REMARK   30  A    between atoms: _70  and  _73
REMARK   31  A    between atoms: _73  and  _74
REMARK   32  A    between atoms: _74  and  _75
REMARK   33  A    between atoms: _78  and  _80
REMARK   34  A    between atoms: _80  and  _81
REMARK   35  A    between atoms: _80  and  _83
REMARK   36  A    between atoms: _83  and  _84
REMARK   37  A    between atoms: _87  and  _89
REMARK   38  A    between atoms: _89  and  _90
REMARK   39  A    between atoms: _89  and  _92
REMARK   40  A    between atoms: _95  and  _97
REMARK   41  A    between atoms: _97  and  _98
REMARK   42  A    between atoms: _97  and  _100
REMARK   43  A    between atoms: _100  and  _101
REMARK   44  A    between atoms: _106  and  _107
REMARK   45  A    between atoms: _109  and  _111
REMARK   46  A    between atoms: _111  and  _112
REMARK   47  A    between atoms: _111  and  _114
REMARK   48  A    between atoms: _114  and  _115
REMARK   49  A    between atoms: _115  and  _116
REMARK   50  A    between atoms: _116  and  _117
REMARK   51  A    between atoms: _117  and  _118
REMARK   52  A    between atoms: _122  and  _124
REMARK   53  A    between atoms: _124  and  _125
REMARK   54  A    between atoms: _124  and  _127
REMARK   55  A    between atoms: _127  and  _128
REMARK   56  A    between atoms: _128  and  _129
REMARK   57  A    between atoms: _132  and  _134
REMARK   58  A    between atoms: _134  and  _135
REMARK   59  A    between atoms: _134  and  _137
REMARK   60  A    between atoms: _137  and  _138
REMARK   61  A    between atoms: _140  and  _142
REMARK   62  A    between atoms: _142  and  _143
REMARK   63  A    between atoms: _142  and  _145
REMARK   64  A    between atoms: _145  and  _146
REMARK   65  A    between atoms: _151  and  _152
REMARK   66  A    between atoms: _154  and  _156
REMARK   67  A    between atoms: _156  and  _157
REMARK   68  A    between atoms: _156  and  _159
REMARK   69  A    between atoms: _159  and  _160
REMARK   70  A    between atoms: _160  and  _161
REMARK   71  A    between atoms: _161  and  _162
REMARK   72  A    between atoms: _171  and  _173
REMARK   73  A    between atoms: _173  and  _174
REMARK   74  A    between atoms: _173  and  _176
REMARK   75  A    between atoms: _176  and  _177
REMARK   76  A    between atoms: _177  and  _178
REMARK   77  A    between atoms: _178  and  _179
REMARK   78  A    between atoms: _179  and  _180
REMARK   79  A    between atoms: _184  and  _186
REMARK   80  A    between atoms: _186  and  _187
REMARK   81  A    between atoms: _186  and  _189
REMARK   82  A    between atoms: _189  and  _190
REMARK   83  A    between atoms: _190  and  _191
REMARK   84  A    between atoms: _191  and  _192
REMARK   85  A    between atoms: _192  and  CA_265
REMARK   86  A    between atoms: _194  and  _196
REMARK   87  A    between atoms: _196  and  _197
REMARK   88  A    between atoms: _196  and  _199
REMARK   89  A    between atoms: _199  and  _200
REMARK   90  A    between atoms: _200  and  _201
REMARK   91  A    between atoms: _208  and  _209
REMARK   92  A    between atoms: _215  and  _217
REMARK   93  A    between atoms: _217  and  _218
REMARK   94  A    between atoms: _217  and  _220
REMARK   95  A    between atoms: _220  and  _221
REMARK   96  A    between atoms: _223  and  _225
REMARK   97  A    between atoms: _225  and  _226
REMARK   98  A    between atoms: _225  and  _228
REMARK   99  A    between atoms: _228  and  _229
REMARK  100  A    between atoms: _229  and  _230
REMARK  101  A    between atoms: _230  and  _231
REMARK  102  A    between atoms: _231  and  _232
REMARK  103  A    between atoms: _236  and  _238
REMARK  104  A    between atoms: _238  and  _239
REMARK  105  A    between atoms: _238  and  _241
REMARK  106  A    between atoms: _241  and  _242
REMARK  107  A    between atoms: _245  and  _247
REMARK  108  A    between atoms: _247  and  _248
REMARK  109  A    between atoms: _247  and  _250
REMARK  110  A    between atoms: _250  and  _251
REMARK  111  A    between atoms: _253  and  _255
REMARK  112  A    between atoms: _255  and  _256
REMARK  113  A    between atoms: _255  and  _258
REMARK  114  A    between atoms: _258  and  _259
REMARK  115  A    between atoms: _259  and  _260
REMARK                            x       y       z     vdW  Elec       q    Type
REMARK                         _______ _______ _______ _____ _____    ______ ____
ROOT
ATOM      1  NE  ARG A   1    -103.252   7.457 -11.518  0.00  0.00    -0.265 N 
ATOM      2  HE  ARG A   1    -103.251   7.831 -10.548  0.00  0.00    +0.259 HD
ATOM      3  CZ  ARG A   1    -103.910   6.328 -11.733  0.00  0.00    +0.342 C 
ATOM      4  NH2 ARG A   1    -104.523   5.705 -10.729  0.00  0.00    -0.292 N 
ATOM      5 HH21 ARG A   1    -104.487   6.105  -9.770  0.00  0.00    +0.255 HD
ATOM      6 HH22 ARG A   1    -105.038   4.819 -10.904  0.00  0.00    +0.255 HD
ATOM      7  NH1 ARG A   1    -103.950   5.793 -12.947  0.00  0.00    -0.292 N 
ATOM      8 HH11 ARG A   1    -104.469   4.906 -13.108  0.00  0.00    +0.255 HD
ATOM      9 HH12 ARG A   1    -103.462   6.261 -13.738  0.00  0.00    +0.255 HD
ENDROOT
BRANCH   1  10
ATOM     10  CD  ARG A   1    -102.530   8.218 -12.529  0.00  0.00    +0.174 C 
BRANCH  10  11
ATOM     11  CG  ARG A   1    -101.265   7.494 -13.010  0.00  0.00    +0.045 C 
BRANCH  11  12
ATOM     12  CB  ARG A   1    -100.259   7.184 -11.902  0.00  0.00    +0.029 C 
BRANCH  12  13
ATOM     13  CA  ARG A   1     -99.542   5.852 -12.203  0.00  0.00    +0.133 C 
BRANCH  13  14
ATOM     14  N   ARG A   1    -100.438   4.708 -12.011  0.00  0.00    -0.239 NA
ATOM     15  H   ARG A   1    -100.522   4.018 -12.785  0.00  0.00    +0.142 HD
ENDBRANCH  13  14
BRANCH  13  16
ATOM     16  C   ARG A   1     -98.194   5.756 -11.499  0.00  0.00    +0.224 C 
ATOM     17  O   ARG A   1     -97.275   6.487 -11.856  0.00  0.00    -0.287 OA
ENDBRANCH  13  16
ENDBRANCH  12  13
ENDBRANCH  11  12
ENDBRANCH  10  11
ENDBRANCH   1  10
TORSDOF 6
REMARK  Name = ../refined-set-2016/4ayu/4ayu_pocket.pdb
REMARK  115 active torsions:
REMARK  status: ('A' for Active; 'I' for Inactive)
REMARK    1  A    between atoms: _1  and  _3
REMARK    2  A    between atoms: _3  and  _4
REMARK    3  A    between atoms: _7  and  _9
REMARK    4  A    between atoms: _9  and  _10
REMARK    5  A    between atoms: _9  and  _12
REMARK    6  A    between atoms: _12  and  _13
REMARK    7  A    between atoms: _18  and  _19
REMARK    8  A    between atoms: _21  and  _23
REMARK    9  A    between atoms: _23  and  _24
REMARK   10  A    between atoms: _23  and  _26
REMARK   11  A    between atoms: _26  and  _27
REMARK   12  A    between atoms: _29  and  _31
REMARK   13  A    between atoms: _31  and  _32
REMARK   14  A    between atoms: _31  and  _34
REMARK   15  A    between atoms: _34  and  _35
REMARK   16  A    between atoms: _37  and  _39
REMARK   17  A    between atoms: _39  and  _40
REMARK   18  A    between atoms: _39  and  _42
REMARK   19  A    between atoms: _42  and  _43
REMARK   20  A    between atoms: _48  and  _50
REMARK   21  A    between atoms: _50  and  _51
REMARK   22  A    between atoms: _50  and  _53
REMARK   23  A    between atoms: _53  and  _54
REMARK   24  A    between atoms: _57  and  _59
REMARK   25  A    between atoms: _59  and  _60
REMARK   26  A    between atoms: _59  and  _62
REMARK   27  A    between atoms: _62  and  _63
REMARK   28  A    between atoms: _68  and  _70
REMARK   29  A    between atoms: _70  and  _71
REMARK   30  A    between atoms: _70  and  _73
REMARK   31  A    between atoms: _73  and  _74
REMARK   32  A    between atoms: _74  and  _75
REMARK   33  A    between atoms: _78  and  _80
REMARK   34  A    between atoms: _80  and  _81
REMARK   35  A    between atoms: _80  and  _83
REMARK   36  A    between atoms: _83  and  _84
REMARK   37  A    between atoms: _87  and  _89
REMARK   38  A    between atoms: _89  and  _90
REMARK   39  A    between atoms: _89  and  _92
REMARK   40  A    between atoms: _95  and  _97
REMARK   41  A    between atoms: _97  and  _98
REMARK   42  A    between atoms: _97  and  _100
REMARK   43  A    between atoms: _100  and  _101
REMARK   44  A    between atoms: _106  and  _107
REMARK   45  A    between atoms: _109  and  _111
REMARK   46  A    between atoms: _111  and  _112
REMARK   47  A    between atoms: _111  and  _114
REMARK   48  A    between atoms: _114  and  _115
REMARK   49  A    between atoms: _115  and  _116
REMARK   50  A    between atoms: _116  and  _117
REMARK   51  A    between atoms: _117  and  _118
REMARK   52  A    between atoms: _122  and  _124
REMARK   53  A    between atoms: _124  and  _125
REMARK   54  A    between atoms: _124  and  _127
REMARK   55  A    between atoms: _127  and  _128
REMARK   56  A    between atoms: _128  and  _129
REMARK   57  A    between atoms: _132  and  _134
REMARK   58  A    between atoms: _134  and  _135
REMARK   59  A    between atoms: _134  and  _137
REMARK   60  A    between atoms: _137  and  _138
REMARK   61  A    between atoms: _140  and  _142
REMARK   62  A    between atoms: _142  and  _143
REMARK   63  A    between atoms: _142  and  _145
REMARK   64  A    between atoms: _145  and  _146
REMARK   65  A    between atoms: _151  and  _152
REMARK   66  A    between atoms: _154  and  _156
REMARK   67  A    between atoms: _156  and  _157
REMARK   68  A    between atoms: _156  and  _159
REMARK   69  A    between atoms: _159  and  _160
REMARK   70  A    between atoms: _160  and  _161
REMARK   71  A    between atoms: _161  and  _162
REMARK   72  A    between atoms: _171  and  _173
REMARK   73  A    between atoms: _173  and  _174
REMARK   74  A    between atoms: _173  and  _176
REMARK   75  A    between atoms: _176  and  _177
REMARK   76  A    between atoms: _177  and  _178
REMARK   77  A    between atoms: _178  and  _179
REMARK   78  A    between atoms: _179  and  _180
REMARK   79  A    between atoms: _184  and  _186
REMARK   80  A    between atoms: _186  and  _187
REMARK   81  A    between atoms: _186  and  _189
REMARK   82  A    between atoms: _189  and  _190
REMARK   83  A    between atoms: _190  and  _191
REMARK   84  A    between atoms: _191  and  _192
REMARK   85  A    between atoms: _192  and  CA_265
REMARK   86  A    between atoms: _194  and  _196
REMARK   87  A    between atoms: _196  and  _197
REMARK   88  A    between atoms: _196  and  _199
REMARK   89  A    between atoms: _199  and  _200
REMARK   90  A    between atoms: _200  and  _201
REMARK   91  A    between atoms: _208  and  _209
REMARK   92  A    between atoms: _215  and  _217
REMARK   93  A    between atoms: _217  and  _218
REMARK   94  A    between atoms: _217  and  _220
REMARK   95  A    between atoms: _220  and  _221
REMARK   96  A    between atoms: _223  and  _225
REMARK   97  A    between atoms: _225  and  _226
REMARK   98  A    between atoms: _225  and  _228
REMARK   99  A    between atoms: _228  and  _229
REMARK  100  A    between atoms: _229  and  _230
REMARK  101  A    between atoms: _230  and  _231
REMARK  102  A    between atoms: _231  and  _232
REMARK  103  A    between atoms: _236  and  _238
REMARK  104  A    between atoms: _238  and  _239
REMARK  105  A    between atoms: _238  and  _241
REMARK  106  A    between atoms: _241  and  _242
REMARK  107  A    between atoms: _245  and  _247
REMARK  108  A    between atoms: _247  and  _248
REMARK  109  A    between atoms: _247  and  _250
REMARK  110  A    between atoms: _250  and  _251
REMARK  111  A    between atoms: _253  and  _255
REMARK  112  A    between atoms: _255  and  _256
REMARK  113  A    between atoms: _255  and  _258
REMARK  114  A    between atoms: _258  and  _259
REMARK  115  A    between atoms: _259  and  _260
REMARK                            x       y       z     vdW  Elec       q    Type
REMARK                         _______ _______ _______ _____ _____    ______ ____
ROOT
ATOM      1  CG  LYS A   1     -92.129   4.278 -12.195  0.00  0.00    -0.000 C 
ENDROOT
BRANCH   1   2
ATOM      2  CB  LYS A   1     -93.249   3.347 -12.549  0.00  0.00    +0.025 C 
BRANCH   2   3
ATOM      3  CA  LYS A   1     -93.874   2.649 -11.344  0.00  0.00    +0.133 C 
BRANCH   3   4
ATOM      4  N   LYS A   1     -94.682   3.571 -10.538  0.00  0.00    -0.239 NA
ATOM      5  H   LYS A   1     -94.220   4.206  -9.856  0.00  0.00    +0.142 HD
ENDBRANCH   3   4
BRANCH   3   6
ATOM      6  C   LYS A   1     -92.768   1.974 -10.551  0.00  0.00    +0.224 C 
ATOM      7  O   LYS A   1     -92.264   2.495  -9.538  0.00  0.00    -0.287 OA
ENDBRANCH   3   6
ENDBRANCH   2   3
ENDBRANCH   1   2
BRANCH   1   8
ATOM      8  CD  LYS A   1     -91.609   5.080 -13.396  0.00  0.00    -0.024 C 
BRANCH   8   9
ATOM      9  CE  LYS A   1     -90.949   4.206 -14.435  0.00  0.00    -0.086 C 
BRANCH   9  10
ATOM     10  NZ  LYS A   1     -90.331   5.020 -15.555  0.00  0.00    +0.380 N 
ATOM     11  HZ1 LYS A   1     -89.610   5.658 -15.161  0.00  0.00    -0.089 HD
ATOM     12  HZ2 LYS A   1     -91.071   5.580 -16.024  0.00  0.00    -0.089 HD
ATOM     13  HZ3 LYS A   1     -89.890   4.379 -16.245  0.00  0.00    -0.089 HD
ENDBRANCH   9  10
ENDBRANCH   8   9
ENDBRANCH   1   8
TORSDOF 7
REMARK  Name = ../refined-set-2016/4ayu/4ayu_pocket.pdb
REMARK  115 active torsions:
REMARK  status: ('A' for Active; 'I' for Inactive)
REMARK    1  A    between atoms: _1  and  _3
REMARK    2  A    between atoms: _3  and  _4
REMARK    3  A    between atoms: _7  and  _9
REMARK    4  A    between atoms: _9  and  _10
REMARK    5  A    between atoms: _9  and  _12
REMARK    6  A    between atoms: _12  and  _13
REMARK    7  A    between atoms: _18  and  _19
REMARK    8  A    between atoms: _21  and  _23
REMARK    9  A    between atoms: _23  and  _24
REMARK   10  A    between atoms: _23  and  _26
REMARK   11  A    between atoms: _26  and  _27
REMARK   12  A    between atoms: _29  and  _31
REMARK   13  A    between atoms: _31  and  _32
REMARK   14  A    between atoms: _31  and  _34
REMARK   15  A    between atoms: _34  and  _35
REMARK   16  A    between atoms: _37  and  _39
REMARK   17  A    between atoms: _39  and  _40
REMARK   18  A    between atoms: _39  and  _42
REMARK   19  A    between atoms: _42  and  _43
REMARK   20  A    between atoms: _48  and  _50
REMARK   21  A    between atoms: _50  and  _51
REMARK   22  A    between atoms: _50  and  _53
REMARK   23  A    between atoms: _53  and  _54
REMARK   24  A    between atoms: _57  and  _59
REMARK   25  A    between atoms: _59  and  _60
REMARK   26  A    between atoms: _59  and  _62
REMARK   27  A    between atoms: _62  and  _63
REMARK   28  A    between atoms: _68  and  _70
REMARK   29  A    between atoms: _70  and  _71
REMARK   30  A    between atoms: _70  and  _73
REMARK   31  A    between atoms: _73  and  _74
REMARK   32  A    between atoms: _74  and  _75
REMARK   33  A    between atoms: _78  and  _80
REMARK   34  A    between atoms: _80  and  _81
REMARK   35  A    between atoms: _80  and  _83
REMARK   36  A    between atoms: _83  and  _84
REMARK   37  A    between atoms: _87  and  _89
REMARK   38  A    between atoms: _89  and  _90
REMARK   39  A    between atoms: _89  and  _92
REMARK   40  A    between atoms: _95  and  _97
REMARK   41  A    between atoms: _97  and  _98
REMARK   42  A    between atoms: _97  and  _100
REMARK   43  A    between atoms: _100  and  _101
REMARK   44  A    between atoms: _106  and  _107
REMARK   45  A    between atoms: _109  and  _111
REMARK   46  A    between atoms: _111  and  _112
REMARK   47  A    between atoms: _111  and  _114
REMARK   48  A    between atoms: _114  and  _115
REMARK   49  A    between atoms: _115  and  _116
REMARK   50  A    between atoms: _116  and  _117
REMARK   51  A    between atoms: _117  and  _118
REMARK   52  A    between atoms: _122  and  _124
REMARK   53  A    between atoms: _124  and  _125
REMARK   54  A    between atoms: _124  and  _127
REMARK   55  A    between atoms: _127  and  _128
REMARK   56  A    between atoms: _128  and  _129
REMARK   57  A    between atoms: _132  and  _134
REMARK   58  A    between atoms: _134  and  _135
REMARK   59  A    between atoms: _134  and  _137
REMARK   60  A    between atoms: _137  and  _138
REMARK   61  A    between atoms: _140  and  _142
REMARK   62  A    between atoms: _142  and  _143
REMARK   63  A    between atoms: _142  and  _145
REMARK   64  A    between atoms: _145  and  _146
REMARK   65  A    between atoms: _151  and  _152
REMARK   66  A    between atoms: _154  and  _156
REMARK   67  A    between atoms: _156  and  _157
REMARK   68  A    between atoms: _156  and  _159
REMARK   69  A    between atoms: _159  and  _160
REMARK   70  A    between atoms: _160  and  _161
REMARK   71  A    between atoms: _161  and  _162
REMARK   72  A    between atoms: _171  and  _173
REMARK   73  A    between atoms: _173  and  _174
REMARK   74  A    between atoms: _173  and  _176
REMARK   75  A    between atoms: _176  and  _177
REMARK   76  A    between atoms: _177  and  _178
REMARK   77  A    between atoms: _178  and  _179
REMARK   78  A    between atoms: _179  and  _180
REMARK   79  A    between atoms: _184  and  _186
REMARK   80  A    between atoms: _186  and  _187
REMARK   81  A    between atoms: _186  and  _189
REMARK   82  A    between atoms: _189  and  _190
REMARK   83  A    between atoms: _190  and  _191
REMARK   84  A    between atoms: _191  and  _192
REMARK   85  A    between atoms: _192  and  CA_265
REMARK   86  A    between atoms: _194  and  _196
REMARK   87  A    between atoms: _196  and  _197
REMARK   88  A    between atoms: _196  and  _199
REMARK   89  A    between atoms: _199  and  _200
REMARK   90  A    between atoms: _200  and  _201
REMARK   91  A    between atoms: _208  and  _209
REMARK   92  A    between atoms: _215  and  _217
REMARK   93  A    between atoms: _217  and  _218
REMARK   94  A    between atoms: _217  and  _220
REMARK   95  A    between atoms: _220  and  _221
REMARK   96  A    between atoms: _223  and  _225
REMARK   97  A    between atoms: _225  and  _226
REMARK   98  A    between atoms: _225  and  _228
REMARK   99  A    between atoms: _228  and  _229
REMARK  100  A    between atoms: _229  and  _230
REMARK  101  A    between atoms: _230  and  _231
REMARK  102  A    between atoms: _231  and  _232
REMARK  103  A    between atoms: _236  and  _238
REMARK  104  A    between atoms: _238  and  _239
REMARK  105  A    between atoms: _238  and  _241
REMARK  106  A    between atoms: _241  and  _242
REMARK  107  A    between atoms: _245  and  _247
REMARK  108  A    between atoms: _247  and  _248
REMARK  109  A    between atoms: _247  and  _250
REMARK  110  A    between atoms: _250  and  _251
REMARK  111  A    between atoms: _253  and  _255
REMARK  112  A    between atoms: _255  and  _256
REMARK  113  A    between atoms: _255  and  _258
REMARK  114  A    between atoms: _258  and  _259
REMARK  115  A    between atoms: _259  and  _260
REMARK                            x       y       z     vdW  Elec       q    Type
REMARK                         _______ _______ _______ _____ _____    ______ ____
ROOT
ATOM      1  C   UNK A   0    -102.216   5.655 -24.324  0.00  0.00    +0.000 C 
ENDROOT
BRANCH   1   2
ATOM      2  C   UNK A   0    -101.924   6.756 -23.327  0.00  0.00    +0.000 C 
ATOM      3  O   UNK A   0    -101.324   6.491 -22.306  0.00  0.00    +0.000 OA
ATOM      4 CA   UNK A   1     -99.751   7.265 -20.685  0.00  0.00    +0.000 Ca
ATOM      5  O   UNK A   1     -99.764   9.171 -22.110  0.00  0.00    +0.000 OA
ATOM      6  C   UNK A   1    -100.195  10.033 -22.903  0.00  0.00    +0.000 C 
ATOM      7  C   UNK A   1    -101.687  10.253 -22.978  0.00  0.00    +0.000 C 
ATOM      8  C   UNK A   1    -102.487   9.016 -22.577  0.00  0.00    +0.000 C 
ATOM      9  O   UNK A   1     -99.443  10.742 -23.606  0.00  0.00    +0.000 OA
ATOM     10  N   UNK A   1    -102.394   7.971 -23.607  0.00  0.00    +0.000 NA
ATOM     11  H   UNK A   1    -102.702   8.185 -24.577  0.00  0.00    +0.000 HD
BRANCH   8  12
ATOM     12  C   UNK A   1    -103.933   9.405 -22.271  0.00  0.00    +0.000 C 
ATOM     13  O   UNK A   1    -104.182  10.205 -21.368  0.00  0.00    +0.000 OA
ATOM     14  N   UNK A   1    -104.877   8.851 -23.018  0.00  0.00    +0.000 N 
ATOM     15  H   UNK A   1    -104.592   8.262 -23.827  0.00  0.00    +0.000 HD
BRANCH  14  16
ATOM     16  C   UNK A   1    -106.295   9.033 -22.753  0.00  0.00    +0.000 C 
BRANCH  16  17
ATOM     17  C   UNK A   1    -106.977   7.670 -22.742  0.00  0.00    +0.000 C 
ATOM     18  O   UNK A   1    -106.317   6.640 -22.847  0.00  0.00    +0.000 OA
ENDBRANCH  16  17
BRANCH  16  19
ATOM     19  C   UNK A   1    -106.915   9.912 -23.832  0.00  0.00    +0.000 C 
BRANCH  19  20
ATOM     20  O   UNK A   1    -106.954   9.200 -25.057  0.00  0.00    +0.000 OA
ATOM     21  H   UNK A   1    -107.357   9.772 -25.757  0.00  0.00    +0.000 HD
ENDBRANCH  19  20
ENDBRANCH  16  19
ENDBRANCH  14  16
ENDBRANCH   8  12
ENDBRANCH   1   2
BRANCH   1  23
ATOM     22  C   UNK A   0    -100.017   5.118 -25.208  0.00  0.00    +0.000 C 
ATOM     23  N   UNK A   0    -101.061   4.763 -24.470  0.00  0.00    +0.000 N 
ATOM     24  H   UNK A   0    -101.060   3.841 -23.989  0.00  0.00    +0.000 HD
ATOM     25  O   UNK A   0     -99.977   6.169 -25.828  0.00  0.00    +0.000 OA
BRANCH  22  26
ATOM     26  C   UNK A   0     -98.846   4.136 -25.299  0.00  0.00    +0.000 C 
BRANCH  26  27
ATOM     27  N   UNK A   0     -98.636   3.813 -26.700  0.00  0.00    +0.000 NA
ATOM     28  H   UNK A   0     -98.075   4.472 -27.278  0.00  0.00    +0.000 HD
ENDBRANCH  26  27
BRANCH  26  29
ATOM     29  C   UNK A   0     -97.569   4.768 -24.743  0.00  0.00    +0.000 C 
BRANCH  29  30
ATOM     30  C   UNK A   0     -97.398   4.595 -23.243  0.00  0.00    +0.000 C 
BRANCH  30  31
ATOM     31  C   UNK A   0     -98.235   5.550 -22.424  0.00  0.00    +0.000 C 
ATOM     32  O   UNK A   0     -98.821   5.114 -21.412  0.00  0.00    +0.000 OA
BRANCH  31  33
ATOM     33  O   UNK A   0     -98.318   6.741 -22.798  0.00  0.00    +0.000 OA
BRANCH  33  34
ATOM     34 CA   UNK A   0     -97.582   8.935 -23.354  0.00  0.00    +0.000 Ca
ATOM     35  O   UNK A   0     -96.263  10.764 -24.241  0.00  0.00    +0.000 OA
ENDBRANCH  33  34
ENDBRANCH  31  33
ENDBRANCH  30  31
ENDBRANCH  29  30
ENDBRANCH  26  29
ENDBRANCH  22  26
ENDBRANCH   1  23
BRANCH   1  36
ATOM     36  C   UNK A   0    -103.428   4.911 -23.799  0.00  0.00    +0.000 C 
BRANCH  36  37
ATOM     37  C   UNK A   0    -103.982   3.842 -24.693  0.00  0.00    +0.000 C 
BRANCH  37  38
ATOM     38  C   UNK A   0    -105.030   2.997 -23.992  0.00  0.00    +0.000 C 
ATOM     39  N   UNK A   0    -104.604   1.885 -23.428  0.00  0.00    +0.000 N 
ATOM     40  H   UNK A   0    -105.270   1.275 -22.913  0.00  0.00    +0.000 HD
ATOM     41  H   UNK A   0    -103.601   1.618 -23.498  0.00  0.00    +0.000 HD
ATOM     42  O   UNK A   0    -106.209   3.357 -23.937  0.00  0.00    +0.000 OA
ENDBRANCH  37  38
ENDBRANCH  36  37
ENDBRANCH   1  36
TORSDOF 17
REMARK  Name = ../refined-set-2016/4ayu/4ayu_pocket.pdb
REMARK  115 active torsions:
REMARK  status: ('A' for Active; 'I' for Inactive)
REMARK    1  A    between atoms: _1  and  _3
REMARK    2  A    between atoms: _3  and  _4
REMARK    3  A    between atoms: _7  and  _9
REMARK    4  A    between atoms: _9  and  _10
REMARK    5  A    between atoms: _9  and  _12
REMARK    6  A    between atoms: _12  and  _13
REMARK    7  A    between atoms: _18  and  _19
REMARK    8  A    between atoms: _21  and  _23
REMARK    9  A    between atoms: _23  and  _24
REMARK   10  A    between atoms: _23  and  _26
REMARK   11  A    between atoms: _26  and  _27
REMARK   12  A    between atoms: _29  and  _31
REMARK   13  A    between atoms: _31  and  _32
REMARK   14  A    between atoms: _31  and  _34
REMARK   15  A    between atoms: _34  and  _35
REMARK   16  A    between atoms: _37  and  _39
REMARK   17  A    between atoms: _39  and  _40
REMARK   18  A    between atoms: _39  and  _42
REMARK   19  A    between atoms: _42  and  _43
REMARK   20  A    between atoms: _48  and  _50
REMARK   21  A    between atoms: _50  and  _51
REMARK   22  A    between atoms: _50  and  _53
REMARK   23  A    between atoms: _53  and  _54
REMARK   24  A    between atoms: _57  and  _59
REMARK   25  A    between atoms: _59  and  _60
REMARK   26  A    between atoms: _59  and  _62
REMARK   27  A    between atoms: _62  and  _63
REMARK   28  A    between atoms: _68  and  _70
REMARK   29  A    between atoms: _70  and  _71
REMARK   30  A    between atoms: _70  and  _73
REMARK   31  A    between atoms: _73  and  _74
REMARK   32  A    between atoms: _74  and  _75
REMARK   33  A    between atoms: _78  and  _80
REMARK   34  A    between atoms: _80  and  _81
REMARK   35  A    between atoms: _80  and  _83
REMARK   36  A    between atoms: _83  and  _84
REMARK   37  A    between atoms: _87  and  _89
REMARK   38  A    between atoms: _89  and  _90
REMARK   39  A    between atoms: _89  and  _92
REMARK   40  A    between atoms: _95  and  _97
REMARK   41  A    between atoms: _97  and  _98
REMARK   42  A    between atoms: _97  and  _100
REMARK   43  A    between atoms: _100  and  _101
REMARK   44  A    between atoms: _106  and  _107
REMARK   45  A    between atoms: _109  and  _111
REMARK   46  A    between atoms: _111  and  _112
REMARK   47  A    between atoms: _111  and  _114
REMARK   48  A    between atoms: _114  and  _115
REMARK   49  A    between atoms: _115  and  _116
REMARK   50  A    between atoms: _116  and  _117
REMARK   51  A    between atoms: _117  and  _118
REMARK   52  A    between atoms: _122  and  _124
REMARK   53  A    between atoms: _124  and  _125
REMARK   54  A    between atoms: _124  and  _127
REMARK   55  A    between atoms: _127  and  _128
REMARK   56  A    between atoms: _128  and  _129
REMARK   57  A    between atoms: _132  and  _134
REMARK   58  A    between atoms: _134  and  _135
REMARK   59  A    between atoms: _134  and  _137
REMARK   60  A    between atoms: _137  and  _138
REMARK   61  A    between atoms: _140  and  _142
REMARK   62  A    between atoms: _142  and  _143
REMARK   63  A    between atoms: _142  and  _145
REMARK   64  A    between atoms: _145  and  _146
REMARK   65  A    between atoms: _151  and  _152
REMARK   66  A    between atoms: _154  and  _156
REMARK   67  A    between atoms: _156  and  _157
REMARK   68  A    between atoms: _156  and  _159
REMARK   69  A    between atoms: _159  and  _160
REMARK   70  A    between atoms: _160  and  _161
REMARK   71  A    between atoms: _161  and  _162
REMARK   72  A    between atoms: _171  and  _173
REMARK   73  A    between atoms: _173  and  _174
REMARK   74  A    between atoms: _173  and  _176
REMARK   75  A    between atoms: _176  and  _177
REMARK   76  A    between atoms: _177  and  _178
REMARK   77  A    between atoms: _178  and  _179
REMARK   78  A    between atoms: _179  and  _180
REMARK   79  A    between atoms: _184  and  _186
REMARK   80  A    between atoms: _186  and  _187
REMARK   81  A    between atoms: _186  and  _189
REMARK   82  A    between atoms: _189  and  _190
REMARK   83  A    between atoms: _190  and  _191
REMARK   84  A    between atoms: _191  and  _192
REMARK   85  A    between atoms: _192  and  CA_265
REMARK   86  A    between atoms: _194  and  _196
REMARK   87  A    between atoms: _196  and  _197
REMARK   88  A    between atoms: _196  and  _199
REMARK   89  A    between atoms: _199  and  _200
REMARK   90  A    between atoms: _200  and  _201
REMARK   91  A    between atoms: _208  and  _209
REMARK   92  A    between atoms: _215  and  _217
REMARK   93  A    between atoms: _217  and  _218
REMARK   94  A    between atoms: _217  and  _220
REMARK   95  A    between atoms: _220  and  _221
REMARK   96  A    between atoms: _223  and  _225
REMARK   97  A    between atoms: _225  and  _226
REMARK   98  A    between atoms: _225  and  _228
REMARK   99  A    between atoms: _228  and  _229
REMARK  100  A    between atoms: _229  and  _230
REMARK  101  A    between atoms: _230  and  _231
REMARK  102  A    between atoms: _231  and  _232
REMARK  103  A    between atoms: _236  and  _238
REMARK  104  A    between atoms: _238  and  _239
REMARK  105  A    between atoms: _238  and  _241
REMARK  106  A    between atoms: _241  and  _242
REMARK  107  A    between atoms: _245  and  _247
REMARK  108  A    between atoms: _247  and  _248
REMARK  109  A    between atoms: _247  and  _250
REMARK  110  A    between atoms: _250  and  _251
REMARK  111  A    between atoms: _253  and  _255
REMARK  112  A    between atoms: _255  and  _256
REMARK  113  A    between atoms: _255  and  _258
REMARK  114  A    between atoms: _258  and  _259
REMARK  115  A    between atoms: _259  and  _260
REMARK                            x       y       z     vdW  Elec       q    Type
REMARK                         _______ _______ _______ _____ _____    ______ ____
ROOT
ATOM      1  CG  LYS A   1    -104.966  12.062 -26.026  0.00  0.00    -0.000 C 
ENDROOT
BRANCH   1   2
ATOM      2  CB  LYS A   1    -103.833  11.047 -25.897  0.00  0.00    +0.025 C 
BRANCH   2   3
ATOM      3  CA  LYS A   1    -103.543  10.295 -27.208  0.00  0.00    +0.133 C 
BRANCH   3   4
ATOM      4  N   LYS A   1    -104.609   9.361 -27.543  0.00  0.00    -0.239 NA
ATOM      5  H   LYS A   1    -105.226   9.599 -28.346  0.00  0.00    +0.142 HD
ENDBRANCH   3   4
BRANCH   3   6
ATOM      6  C   LYS A   1    -102.207   9.575 -27.175  0.00  0.00    +0.224 C 
ATOM      7  O   LYS A   1    -101.492   9.581 -26.173  0.00  0.00    -0.287 OA
ENDBRANCH   3   6
ENDBRANCH   2   3
ENDBRANCH   1   2
BRANCH   1   8
ATOM      8  CD  LYS A   1    -104.581  13.234 -26.918  0.00  0.00    -0.024 C 
BRANCH   8   9
ATOM      9  CE  LYS A   1    -105.677  14.293 -26.936  0.00  0.00    -0.086 C 
BRANCH   9  10
ATOM     10  NZ  LYS A   1    -105.401  15.380 -27.918  0.00  0.00    +0.380 N 
ATOM     11  HZ1 LYS A   1    -104.505  15.848 -27.672  0.00  0.00    -0.089 HD
ATOM     12  HZ2 LYS A   1    -106.175  16.074 -27.892  0.00  0.00    -0.089 HD
ATOM     13  HZ3 LYS A   1    -105.331  14.973 -28.873  0.00  0.00    -0.089 HD
ENDBRANCH   9  10
ENDBRANCH   8   9
ENDBRANCH   1   8
TORSDOF 7
REMARK  Name = ../refined-set-2016/4ayu/4ayu_pocket.pdb
REMARK  115 active torsions:
REMARK  status: ('A' for Active; 'I' for Inactive)
REMARK    1  A    between atoms: _1  and  _3
REMARK    2  A    between atoms: _3  and  _4
REMARK    3  A    between atoms: _7  and  _9
REMARK    4  A    between atoms: _9  and  _10
REMARK    5  A    between atoms: _9  and  _12
REMARK    6  A    between atoms: _12  and  _13
REMARK    7  A    between atoms: _18  and  _19
REMARK    8  A    between atoms: _21  and  _23
REMARK    9  A    between atoms: _23  and  _24
REMARK   10  A    between atoms: _23  and  _26
REMARK   11  A    between atoms: _26  and  _27
REMARK   12  A    between atoms: _29  and  _31
REMARK   13  A    between atoms: _31  and  _32
REMARK   14  A    between atoms: _31  and  _34
REMARK   15  A    between atoms: _34  and  _35
REMARK   16  A    between atoms: _37  and  _39
REMARK   17  A    between atoms: _39  and  _40
REMARK   18  A    between atoms: _39  and  _42
REMARK   19  A    between atoms: _42  and  _43
REMARK   20  A    between atoms: _48  and  _50
REMARK   21  A    between atoms: _50  and  _51
REMARK   22  A    between atoms: _50  and  _53
REMARK   23  A    between atoms: _53  and  _54
REMARK   24  A    between atoms: _57  and  _59
REMARK   25  A    between atoms: _59  and  _60
REMARK   26  A    between atoms: _59  and  _62
REMARK   27  A    between atoms: _62  and  _63
REMARK   28  A    between atoms: _68  and  _70
REMARK   29  A    between atoms: _70  and  _71
REMARK   30  A    between atoms: _70  and  _73
REMARK   31  A    between atoms: _73  and  _74
REMARK   32  A    between atoms: _74  and  _75
REMARK   33  A    between atoms: _78  and  _80
REMARK   34  A    between atoms: _80  and  _81
REMARK   35  A    between atoms: _80  and  _83
REMARK   36  A    between atoms: _83  and  _84
REMARK   37  A    between atoms: _87  and  _89
REMARK   38  A    between atoms: _89  and  _90
REMARK   39  A    between atoms: _89  and  _92
REMARK   40  A    between atoms: _95  and  _97
REMARK   41  A    between atoms: _97  and  _98
REMARK   42  A    between atoms: _97  and  _100
REMARK   43  A    between atoms: _100  and  _101
REMARK   44  A    between atoms: _106  and  _107
REMARK   45  A    between atoms: _109  and  _111
REMARK   46  A    between atoms: _111  and  _112
REMARK   47  A    between atoms: _111  and  _114
REMARK   48  A    between atoms: _114  and  _115
REMARK   49  A    between atoms: _115  and  _116
REMARK   50  A    between atoms: _116  and  _117
REMARK   51  A    between atoms: _117  and  _118
REMARK   52  A    between atoms: _122  and  _124
REMARK   53  A    between atoms: _124  and  _125
REMARK   54  A    between atoms: _124  and  _127
REMARK   55  A    between atoms: _127  and  _128
REMARK   56  A    between atoms: _128  and  _129
REMARK   57  A    between atoms: _132  and  _134
REMARK   58  A    between atoms: _134  and  _135
REMARK   59  A    between atoms: _134  and  _137
REMARK   60  A    between atoms: _137  and  _138
REMARK   61  A    between atoms: _140  and  _142
REMARK   62  A    between atoms: _142  and  _143
REMARK   63  A    between atoms: _142  and  _145
REMARK   64  A    between atoms: _145  and  _146
REMARK   65  A    between atoms: _151  and  _152
REMARK   66  A    between atoms: _154  and  _156
REMARK   67  A    between atoms: _156  and  _157
REMARK   68  A    between atoms: _156  and  _159
REMARK   69  A    between atoms: _159  and  _160
REMARK   70  A    between atoms: _160  and  _161
REMARK   71  A    between atoms: _161  and  _162
REMARK   72  A    between atoms: _171  and  _173
REMARK   73  A    between atoms: _173  and  _174
REMARK   74  A    between atoms: _173  and  _176
REMARK   75  A    between atoms: _176  and  _177
REMARK   76  A    between atoms: _177  and  _178
REMARK   77  A    between atoms: _178  and  _179
REMARK   78  A    between atoms: _179  and  _180
REMARK   79  A    between atoms: _184  and  _186
REMARK   80  A    between atoms: _186  and  _187
REMARK   81  A    between atoms: _186  and  _189
REMARK   82  A    between atoms: _189  and  _190
REMARK   83  A    between atoms: _190  and  _191
REMARK   84  A    between atoms: _191  and  _192
REMARK   85  A    between atoms: _192  and  CA_265
REMARK   86  A    between atoms: _194  and  _196
REMARK   87  A    between atoms: _196  and  _197
REMARK   88  A    between atoms: _196  and  _199
REMARK   89  A    between atoms: _199  and  _200
REMARK   90  A    between atoms: _200  and  _201
REMARK   91  A    between atoms: _208  and  _209
REMARK   92  A    between atoms: _215  and  _217
REMARK   93  A    between atoms: _217  and  _218
REMARK   94  A    between atoms: _217  and  _220
REMARK   95  A    between atoms: _220  and  _221
REMARK   96  A    between atoms: _223  and  _225
REMARK   97  A    between atoms: _225  and  _226
REMARK   98  A    between atoms: _225  and  _228
REMARK   99  A    between atoms: _228  and  _229
REMARK  100  A    between atoms: _229  and  _230
REMARK  101  A    between atoms: _230  and  _231
REMARK  102  A    between atoms: _231  and  _232
REMARK  103  A    between atoms: _236  and  _238
REMARK  104  A    between atoms: _238  and  _239
REMARK  105  A    between atoms: _238  and  _241
REMARK  106  A    between atoms: _241  and  _242
REMARK  107  A    between atoms: _245  and  _247
REMARK  108  A    between atoms: _247  and  _248
REMARK  109  A    between atoms: _247  and  _250
REMARK  110  A    between atoms: _250  and  _251
REMARK  111  A    between atoms: _253  and  _255
REMARK  112  A    between atoms: _255  and  _256
REMARK  113  A    between atoms: _255  and  _258
REMARK  114  A    between atoms: _258  and  _259
REMARK  115  A    between atoms: _259  and  _260
REMARK                            x       y       z     vdW  Elec       q    Type
REMARK                         _______ _______ _______ _____ _____    ______ ____
ROOT
ATOM      1  CA  ASP A   1     -97.034   9.376 -28.912  0.00  0.00    +0.144 C 
ENDROOT
BRANCH   1   2
ATOM      2  N   ASP A   1     -98.273   8.624 -28.790  0.00  0.00    -0.239 NA
ATOM      3  H   ASP A   1     -98.215   7.588 -28.723  0.00  0.00    +0.142 HD
ENDBRANCH   1   2
BRANCH   1   4
ATOM      4  C   ASP A   1     -96.055   8.538 -29.737  0.00  0.00    +0.225 C 
ATOM      5  O   ASP A   1     -95.632   7.465 -29.311  0.00  0.00    -0.287 OA
ENDBRANCH   1   4
BRANCH   1   6
ATOM      6  CB  ASP A   1     -96.477   9.657 -27.510  0.00  0.00    +0.139 C 
BRANCH   6   7
ATOM      7  CG  ASP A   1     -95.141  10.396 -27.514  0.00  0.00    +0.367 C 
ATOM      8  OD2 ASP A   1     -94.719  10.813 -26.422  0.00  0.00    -0.246 OA
ATOM      9  OD1 ASP A   1     -94.487  10.545 -28.567  0.00  0.00    -0.246 OA
ENDBRANCH   6   7
ENDBRANCH   1   6
TORSDOF 4
REMARK  Name = ../refined-set-2016/4ayu/4ayu_pocket.pdb
REMARK  115 active torsions:
REMARK  status: ('A' for Active; 'I' for Inactive)
REMARK    1  A    between atoms: _1  and  _3
REMARK    2  A    between atoms: _3  and  _4
REMARK    3  A    between atoms: _7  and  _9
REMARK    4  A    between atoms: _9  and  _10
REMARK    5  A    between atoms: _9  and  _12
REMARK    6  A    between atoms: _12  and  _13
REMARK    7  A    between atoms: _18  and  _19
REMARK    8  A    between atoms: _21  and  _23
REMARK    9  A    between atoms: _23  and  _24
REMARK   10  A    between atoms: _23  and  _26
REMARK   11  A    between atoms: _26  and  _27
REMARK   12  A    between atoms: _29  and  _31
REMARK   13  A    between atoms: _31  and  _32
REMARK   14  A    between atoms: _31  and  _34
REMARK   15  A    between atoms: _34  and  _35
REMARK   16  A    between atoms: _37  and  _39
REMARK   17  A    between atoms: _39  and  _40
REMARK   18  A    between atoms: _39  and  _42
REMARK   19  A    between atoms: _42  and  _43
REMARK   20  A    between atoms: _48  and  _50
REMARK   21  A    between atoms: _50  and  _51
REMARK   22  A    between atoms: _50  and  _53
REMARK   23  A    between atoms: _53  and  _54
REMARK   24  A    between atoms: _57  and  _59
REMARK   25  A    between atoms: _59  and  _60
REMARK   26  A    between atoms: _59  and  _62
REMARK   27  A    between atoms: _62  and  _63
REMARK   28  A    between atoms: _68  and  _70
REMARK   29  A    between atoms: _70  and  _71
REMARK   30  A    between atoms: _70  and  _73
REMARK   31  A    between atoms: _73  and  _74
REMARK   32  A    between atoms: _74  and  _75
REMARK   33  A    between atoms: _78  and  _80
REMARK   34  A    between atoms: _80  and  _81
REMARK   35  A    between atoms: _80  and  _83
REMARK   36  A    between atoms: _83  and  _84
REMARK   37  A    between atoms: _87  and  _89
REMARK   38  A    between atoms: _89  and  _90
REMARK   39  A    between atoms: _89  and  _92
REMARK   40  A    between atoms: _95  and  _97
REMARK   41  A    between atoms: _97  and  _98
REMARK   42  A    between atoms: _97  and  _100
REMARK   43  A    between atoms: _100  and  _101
REMARK   44  A    between atoms: _106  and  _107
REMARK   45  A    between atoms: _109  and  _111
REMARK   46  A    between atoms: _111  and  _112
REMARK   47  A    between atoms: _111  and  _114
REMARK   48  A    between atoms: _114  and  _115
REMARK   49  A    between atoms: _115  and  _116
REMARK   50  A    between atoms: _116  and  _117
REMARK   51  A    between atoms: _117  and  _118
REMARK   52  A    between atoms: _122  and  _124
REMARK   53  A    between atoms: _124  and  _125
REMARK   54  A    between atoms: _124  and  _127
REMARK   55  A    between atoms: _127  and  _128
REMARK   56  A    between atoms: _128  and  _129
REMARK   57  A    between atoms: _132  and  _134
REMARK   58  A    between atoms: _134  and  _135
REMARK   59  A    between atoms: _134  and  _137
REMARK   60  A    between atoms: _137  and  _138
REMARK   61  A    between atoms: _140  and  _142
REMARK   62  A    between atoms: _142  and  _143
REMARK   63  A    between atoms: _142  and  _145
REMARK   64  A    between atoms: _145  and  _146
REMARK   65  A    between atoms: _151  and  _152
REMARK   66  A    between atoms: _154  and  _156
REMARK   67  A    between atoms: _156  and  _157
REMARK   68  A    between atoms: _156  and  _159
REMARK   69  A    between atoms: _159  and  _160
REMARK   70  A    between atoms: _160  and  _161
REMARK   71  A    between atoms: _161  and  _162
REMARK   72  A    between atoms: _171  and  _173
REMARK   73  A    between atoms: _173  and  _174
REMARK   74  A    between atoms: _173  and  _176
REMARK   75  A    between atoms: _176  and  _177
REMARK   76  A    between atoms: _177  and  _178
REMARK   77  A    between atoms: _178  and  _179
REMARK   78  A    between atoms: _179  and  _180
REMARK   79  A    between atoms: _184  and  _186
REMARK   80  A    between atoms: _186  and  _187
REMARK   81  A    between atoms: _186  and  _189
REMARK   82  A    between atoms: _189  and  _190
REMARK   83  A    between atoms: _190  and  _191
REMARK   84  A    between atoms: _191  and  _192
REMARK   85  A    between atoms: _192  and  CA_265
REMARK   86  A    between atoms: _194  and  _196
REMARK   87  A    between atoms: _196  and  _197
REMARK   88  A    between atoms: _196  and  _199
REMARK   89  A    between atoms: _199  and  _200
REMARK   90  A    between atoms: _200  and  _201
REMARK   91  A    between atoms: _208  and  _209
REMARK   92  A    between atoms: _215  and  _217
REMARK   93  A    between atoms: _217  and  _218
REMARK   94  A    between atoms: _217  and  _220
REMARK   95  A    between atoms: _220  and  _221
REMARK   96  A    between atoms: _223  and  _225
REMARK   97  A    between atoms: _225  and  _226
REMARK   98  A    between atoms: _225  and  _228
REMARK   99  A    between atoms: _228  and  _229
REMARK  100  A    between atoms: _229  and  _230
REMARK  101  A    between atoms: _230  and  _231
REMARK  102  A    between atoms: _231  and  _232
REMARK  103  A    between atoms: _236  and  _238
REMARK  104  A    between atoms: _238  and  _239
REMARK  105  A    between atoms: _238  and  _241
REMARK  106  A    between atoms: _241  and  _242
REMARK  107  A    between atoms: _245  and  _247
REMARK  108  A    between atoms: _247  and  _248
REMARK  109  A    between atoms: _247  and  _250
REMARK  110  A    between atoms: _250  and  _251
REMARK  111  A    between atoms: _253  and  _255
REMARK  112  A    between atoms: _255  and  _256
REMARK  113  A    between atoms: _255  and  _258
REMARK  114  A    between atoms: _258  and  _259
REMARK  115  A    between atoms: _259  and  _260
REMARK                            x       y       z     vdW  Elec       q    Type
REMARK                         _______ _______ _______ _____ _____    ______ ____
ROOT
ATOM      1  C   SER A   1     -91.827   7.200 -28.581  0.00  0.00    +0.241 C 
ATOM      2  O   SER A   1     -90.823   6.758 -28.037  0.00  0.00    -0.274 OA
ATOM      3  N   GLN A   2     -93.053   6.751 -28.314  0.00  0.00    -0.298 N 
ATOM      4  H   GLN A   2     -93.866   7.223 -28.758  0.00  0.00    +0.150 HD
ENDROOT
BRANCH   1   5
ATOM      5  CA  SER A   1     -91.711   8.329 -29.622  0.00  0.00    +0.174 C 
BRANCH   5   6
ATOM      6  N   SER A   1     -92.991   8.631 -30.258  0.00  0.00    -0.236 NA
ATOM      7  H   SER A   1     -93.505   9.494 -29.990  0.00  0.00    +0.142 HD
ENDBRANCH   5   6
BRANCH   5   8
ATOM      8  CB  SER A   1     -91.120   9.591 -28.982  0.00  0.00    +0.163 C 
BRANCH   8   9
ATOM      9  OG  SER A   1     -91.851   9.986 -27.838  0.00  0.00    -0.380 OA
ATOM     10  H   SER A   1     -92.788  10.175 -28.096  0.00  0.00    +0.211 HD
ENDBRANCH   8   9
ENDBRANCH   5   8
ENDBRANCH   1   5
BRANCH   3  11
ATOM     11  CA  GLN A   2     -93.298   5.625 -27.425  0.00  0.00    +0.137 C 
BRANCH  11  12
ATOM     12  C   GLN A   2     -93.921   4.438 -28.161  0.00  0.00    +0.227 C 
ATOM     13  O   GLN A   2     -94.270   3.434 -27.527  0.00  0.00    -0.286 OA
ENDBRANCH  11  12
BRANCH  11  14
ATOM     14  CB  GLN A   2     -94.207   6.035 -26.275  0.00  0.00    +0.037 C 
BRANCH  14  15
ATOM     15  CG  GLN A   2     -93.638   7.163 -25.427  0.00  0.00    +0.087 C 
BRANCH  15  16
ATOM     16  CD  GLN A   2     -94.576   7.606 -24.314  0.00  0.00    +0.219 C 
ATOM     17  NE2 GLN A   2     -94.036   7.729 -23.108  0.00  0.00    -0.329 N 
ATOM     18 HE21 GLN A   2     -94.623   8.031 -22.304  0.00  0.00    +0.145 HD
ATOM     19 HE22 GLN A   2     -93.026   7.524 -22.967  0.00  0.00    +0.145 HD
ATOM     20  OE1 GLN A   2     -95.765   7.837 -24.532  0.00  0.00    -0.275 OA
ENDBRANCH  15  16
ENDBRANCH  14  15
ENDBRANCH  11  14
ENDBRANCH   3  11
TORSDOF 9
REMARK  Name = ../refined-set-2016/4ayu/4ayu_pocket.pdb
REMARK  115 active torsions:
REMARK  status: ('A' for Active; 'I' for Inactive)
REMARK    1  A    between atoms: _1  and  _3
REMARK    2  A    between atoms: _3  and  _4
REMARK    3  A    between atoms: _7  and  _9
REMARK    4  A    between atoms: _9  and  _10
REMARK    5  A    between atoms: _9  and  _12
REMARK    6  A    between atoms: _12  and  _13
REMARK    7  A    between atoms: _18  and  _19
REMARK    8  A    between atoms: _21  and  _23
REMARK    9  A    between atoms: _23  and  _24
REMARK   10  A    between atoms: _23  and  _26
REMARK   11  A    between atoms: _26  and  _27
REMARK   12  A    between atoms: _29  and  _31
REMARK   13  A    between atoms: _31  and  _32
REMARK   14  A    between atoms: _31  and  _34
REMARK   15  A    between atoms: _34  and  _35
REMARK   16  A    between atoms: _37  and  _39
REMARK   17  A    between atoms: _39  and  _40
REMARK   18  A    between atoms: _39  and  _42
REMARK   19  A    between atoms: _42  and  _43
REMARK   20  A    between atoms: _48  and  _50
REMARK   21  A    between atoms: _50  and  _51
REMARK   22  A    between atoms: _50  and  _53
REMARK   23  A    between atoms: _53  and  _54
REMARK   24  A    between atoms: _57  and  _59
REMARK   25  A    between atoms: _59  and  _60
REMARK   26  A    between atoms: _59  and  _62
REMARK   27  A    between atoms: _62  and  _63
REMARK   28  A    between atoms: _68  and  _70
REMARK   29  A    between atoms: _70  and  _71
REMARK   30  A    between atoms: _70  and  _73
REMARK   31  A    between atoms: _73  and  _74
REMARK   32  A    between atoms: _74  and  _75
REMARK   33  A    between atoms: _78  and  _80
REMARK   34  A    between atoms: _80  and  _81
REMARK   35  A    between atoms: _80  and  _83
REMARK   36  A    between atoms: _83  and  _84
REMARK   37  A    between atoms: _87  and  _89
REMARK   38  A    between atoms: _89  and  _90
REMARK   39  A    between atoms: _89  and  _92
REMARK   40  A    between atoms: _95  and  _97
REMARK   41  A    between atoms: _97  and  _98
REMARK   42  A    between atoms: _97  and  _100
REMARK   43  A    between atoms: _100  and  _101
REMARK   44  A    between atoms: _106  and  _107
REMARK   45  A    between atoms: _109  and  _111
REMARK   46  A    between atoms: _111  and  _112
REMARK   47  A    between atoms: _111  and  _114
REMARK   48  A    between atoms: _114  and  _115
REMARK   49  A    between atoms: _115  and  _116
REMARK   50  A    between atoms: _116  and  _117
REMARK   51  A    between atoms: _117  and  _118
REMARK   52  A    between atoms: _122  and  _124
REMARK   53  A    between atoms: _124  and  _125
REMARK   54  A    between atoms: _124  and  _127
REMARK   55  A    between atoms: _127  and  _128
REMARK   56  A    between atoms: _128  and  _129
REMARK   57  A    between atoms: _132  and  _134
REMARK   58  A    between atoms: _134  and  _135
REMARK   59  A    between atoms: _134  and  _137
REMARK   60  A    between atoms: _137  and  _138
REMARK   61  A    between atoms: _140  and  _142
REMARK   62  A    between atoms: _142  and  _143
REMARK   63  A    between atoms: _142  and  _145
REMARK   64  A    between atoms: _145  and  _146
REMARK   65  A    between atoms: _151  and  _152
REMARK   66  A    between atoms: _154  and  _156
REMARK   67  A    between atoms: _156  and  _157
REMARK   68  A    between atoms: _156  and  _159
REMARK   69  A    between atoms: _159  and  _160
REMARK   70  A    between atoms: _160  and  _161
REMARK   71  A    between atoms: _161  and  _162
REMARK   72  A    between atoms: _171  and  _173
REMARK   73  A    between atoms: _173  and  _174
REMARK   74  A    between atoms: _173  and  _176
REMARK   75  A    between atoms: _176  and  _177
REMARK   76  A    between atoms: _177  and  _178
REMARK   77  A    between atoms: _178  and  _179
REMARK   78  A    between atoms: _179  and  _180
REMARK   79  A    between atoms: _184  and  _186
REMARK   80  A    between atoms: _186  and  _187
REMARK   81  A    between atoms: _186  and  _189
REMARK   82  A    between atoms: _189  and  _190
REMARK   83  A    between atoms: _190  and  _191
REMARK   84  A    between atoms: _191  and  _192
REMARK   85  A    between atoms: _192  and  CA_265
REMARK   86  A    between atoms: _194  and  _196
REMARK   87  A    between atoms: _196  and  _197
REMARK   88  A    between atoms: _196  and  _199
REMARK   89  A    between atoms: _199  and  _200
REMARK   90  A    between atoms: _200  and  _201
REMARK   91  A    between atoms: _208  and  _209
REMARK   92  A    between atoms: _215  and  _217
REMARK   93  A    between atoms: _217  and  _218
REMARK   94  A    between atoms: _217  and  _220
REMARK   95  A    between atoms: _220  and  _221
REMARK   96  A    between atoms: _223  and  _225
REMARK   97  A    between atoms: _225  and  _226
REMARK   98  A    between atoms: _225  and  _228
REMARK   99  A    between atoms: _228  and  _229
REMARK  100  A    between atoms: _229  and  _230
REMARK  101  A    between atoms: _230  and  _231
REMARK  102  A    between atoms: _231  and  _232
REMARK  103  A    between atoms: _236  and  _238
REMARK  104  A    between atoms: _238  and  _239
REMARK  105  A    between atoms: _238  and  _241
REMARK  106  A    between atoms: _241  and  _242
REMARK  107  A    between atoms: _245  and  _247
REMARK  108  A    between atoms: _247  and  _248
REMARK  109  A    between atoms: _247  and  _250
REMARK  110  A    between atoms: _250  and  _251
REMARK  111  A    between atoms: _253  and  _255
REMARK  112  A    between atoms: _255  and  _256
REMARK  113  A    between atoms: _255  and  _258
REMARK  114  A    between atoms: _258  and  _259
REMARK  115  A    between atoms: _259  and  _260
REMARK                            x       y       z     vdW  Elec       q    Type
REMARK                         _______ _______ _______ _____ _____    ______ ____
ROOT
ATOM      1  O   HOH     1     -86.832   7.483 -22.455  0.00  0.00    +0.000 OA
ENDROOT
TORSDOF 0
REMARK  Name = ../refined-set-2016/4ayu/4ayu_pocket.pdb
REMARK  115 active torsions:
REMARK  status: ('A' for Active; 'I' for Inactive)
REMARK    1  A    between atoms: _1  and  _3
REMARK    2  A    between atoms: _3  and  _4
REMARK    3  A    between atoms: _7  and  _9
REMARK    4  A    between atoms: _9  and  _10
REMARK    5  A    between atoms: _9  and  _12
REMARK    6  A    between atoms: _12  and  _13
REMARK    7  A    between atoms: _18  and  _19
REMARK    8  A    between atoms: _21  and  _23
REMARK    9  A    between atoms: _23  and  _24
REMARK   10  A    between atoms: _23  and  _26
REMARK   11  A    between atoms: _26  and  _27
REMARK   12  A    between atoms: _29  and  _31
REMARK   13  A    between atoms: _31  and  _32
REMARK   14  A    between atoms: _31  and  _34
REMARK   15  A    between atoms: _34  and  _35
REMARK   16  A    between atoms: _37  and  _39
REMARK   17  A    between atoms: _39  and  _40
REMARK   18  A    between atoms: _39  and  _42
REMARK   19  A    between atoms: _42  and  _43
REMARK   20  A    between atoms: _48  and  _50
REMARK   21  A    between atoms: _50  and  _51
REMARK   22  A    between atoms: _50  and  _53
REMARK   23  A    between atoms: _53  and  _54
REMARK   24  A    between atoms: _57  and  _59
REMARK   25  A    between atoms: _59  and  _60
REMARK   26  A    between atoms: _59  and  _62
REMARK   27  A    between atoms: _62  and  _63
REMARK   28  A    between atoms: _68  and  _70
REMARK   29  A    between atoms: _70  and  _71
REMARK   30  A    between atoms: _70  and  _73
REMARK   31  A    between atoms: _73  and  _74
REMARK   32  A    between atoms: _74  and  _75
REMARK   33  A    between atoms: _78  and  _80
REMARK   34  A    between atoms: _80  and  _81
REMARK   35  A    between atoms: _80  and  _83
REMARK   36  A    between atoms: _83  and  _84
REMARK   37  A    between atoms: _87  and  _89
REMARK   38  A    between atoms: _89  and  _90
REMARK   39  A    between atoms: _89  and  _92
REMARK   40  A    between atoms: _95  and  _97
REMARK   41  A    between atoms: _97  and  _98
REMARK   42  A    between atoms: _97  and  _100
REMARK   43  A    between atoms: _100  and  _101
REMARK   44  A    between atoms: _106  and  _107
REMARK   45  A    between atoms: _109  and  _111
REMARK   46  A    between atoms: _111  and  _112
REMARK   47  A    between atoms: _111  and  _114
REMARK   48  A    between atoms: _114  and  _115
REMARK   49  A    between atoms: _115  and  _116
REMARK   50  A    between atoms: _116  and  _117
REMARK   51  A    between atoms: _117  and  _118
REMARK   52  A    between atoms: _122  and  _124
REMARK   53  A    between atoms: _124  and  _125
REMARK   54  A    between atoms: _124  and  _127
REMARK   55  A    between atoms: _127  and  _128
REMARK   56  A    between atoms: _128  and  _129
REMARK   57  A    between atoms: _132  and  _134
REMARK   58  A    between atoms: _134  and  _135
REMARK   59  A    between atoms: _134  and  _137
REMARK   60  A    between atoms: _137  and  _138
REMARK   61  A    between atoms: _140  and  _142
REMARK   62  A    between atoms: _142  and  _143
REMARK   63  A    between atoms: _142  and  _145
REMARK   64  A    between atoms: _145  and  _146
REMARK   65  A    between atoms: _151  and  _152
REMARK   66  A    between atoms: _154  and  _156
REMARK   67  A    between atoms: _156  and  _157
REMARK   68  A    between atoms: _156  and  _159
REMARK   69  A    between atoms: _159  and  _160
REMARK   70  A    between atoms: _160  and  _161
REMARK   71  A    between atoms: _161  and  _162
REMARK   72  A    between atoms: _171  and  _173
REMARK   73  A    between atoms: _173  and  _174
REMARK   74  A    between atoms: _173  and  _176
REMARK   75  A    between atoms: _176  and  _177
REMARK   76  A    between atoms: _177  and  _178
REMARK   77  A    between atoms: _178  and  _179
REMARK   78  A    between atoms: _179  and  _180
REMARK   79  A    between atoms: _184  and  _186
REMARK   80  A    between atoms: _186  and  _187
REMARK   81  A    between atoms: _186  and  _189
REMARK   82  A    between atoms: _189  and  _190
REMARK   83  A    between atoms: _190  and  _191
REMARK   84  A    between atoms: _191  and  _192
REMARK   85  A    between atoms: _192  and  CA_265
REMARK   86  A    between atoms: _194  and  _196
REMARK   87  A    between atoms: _196  and  _197
REMARK   88  A    between atoms: _196  and  _199
REMARK   89  A    between atoms: _199  and  _200
REMARK   90  A    between atoms: _200  and  _201
REMARK   91  A    between atoms: _208  and  _209
REMARK   92  A    between atoms: _215  and  _217
REMARK   93  A    between atoms: _217  and  _218
REMARK   94  A    between atoms: _217  and  _220
REMARK   95  A    between atoms: _220  and  _221
REMARK   96  A    between atoms: _223  and  _225
REMARK   97  A    between atoms: _225  and  _226
REMARK   98  A    between atoms: _225  and  _228
REMARK   99  A    between atoms: _228  and  _229
REMARK  100  A    between atoms: _229  and  _230
REMARK  101  A    between atoms: _230  and  _231
REMARK  102  A    between atoms: _231  and  _232
REMARK  103  A    between atoms: _236  and  _238
REMARK  104  A    between atoms: _238  and  _239
REMARK  105  A    between atoms: _238  and  _241
REMARK  106  A    between atoms: _241  and  _242
REMARK  107  A    between atoms: _245  and  _247
REMARK  108  A    between atoms: _247  and  _248
REMARK  109  A    between atoms: _247  and  _250
REMARK  110  A    between atoms: _250  and  _251
REMARK  111  A    between atoms: _253  and  _255
REMARK  112  A    between atoms: _255  and  _256
REMARK  113  A    between atoms: _255  and  _258
REMARK  114  A    between atoms: _258  and  _259
REMARK  115  A    between atoms: _259  and  _260
REMARK                            x       y       z     vdW  Elec       q    Type
REMARK                         _______ _______ _______ _____ _____    ______ ____
ROOT
ATOM      1  O   HOH     1    -102.093  11.111 -15.277  0.00  0.00    +0.000 OA
ENDROOT
TORSDOF 0
REMARK  Name = ../refined-set-2016/4ayu/4ayu_pocket.pdb
REMARK  115 active torsions:
REMARK  status: ('A' for Active; 'I' for Inactive)
REMARK    1  A    between atoms: _1  and  _3
REMARK    2  A    between atoms: _3  and  _4
REMARK    3  A    between atoms: _7  and  _9
REMARK    4  A    between atoms: _9  and  _10
REMARK    5  A    between atoms: _9  and  _12
REMARK    6  A    between atoms: _12  and  _13
REMARK    7  A    between atoms: _18  and  _19
REMARK    8  A    between atoms: _21  and  _23
REMARK    9  A    between atoms: _23  and  _24
REMARK   10  A    between atoms: _23  and  _26
REMARK   11  A    between atoms: _26  and  _27
REMARK   12  A    between atoms: _29  and  _31
REMARK   13  A    between atoms: _31  and  _32
REMARK   14  A    between atoms: _31  and  _34
REMARK   15  A    between atoms: _34  and  _35
REMARK   16  A    between atoms: _37  and  _39
REMARK   17  A    between atoms: _39  and  _40
REMARK   18  A    between atoms: _39  and  _42
REMARK   19  A    between atoms: _42  and  _43
REMARK   20  A    between atoms: _48  and  _50
REMARK   21  A    between atoms: _50  and  _51
REMARK   22  A    between atoms: _50  and  _53
REMARK   23  A    between atoms: _53  and  _54
REMARK   24  A    between atoms: _57  and  _59
REMARK   25  A    between atoms: _59  and  _60
REMARK   26  A    between atoms: _59  and  _62
REMARK   27  A    between atoms: _62  and  _63
REMARK   28  A    between atoms: _68  and  _70
REMARK   29  A    between atoms: _70  and  _71
REMARK   30  A    between atoms: _70  and  _73
REMARK   31  A    between atoms: _73  and  _74
REMARK   32  A    between atoms: _74  and  _75
REMARK   33  A    between atoms: _78  and  _80
REMARK   34  A    between atoms: _80  and  _81
REMARK   35  A    between atoms: _80  and  _83
REMARK   36  A    between atoms: _83  and  _84
REMARK   37  A    between atoms: _87  and  _89
REMARK   38  A    between atoms: _89  and  _90
REMARK   39  A    between atoms: _89  and  _92
REMARK   40  A    between atoms: _95  and  _97
REMARK   41  A    between atoms: _97  and  _98
REMARK   42  A    between atoms: _97  and  _100
REMARK   43  A    between atoms: _100  and  _101
REMARK   44  A    between atoms: _106  and  _107
REMARK   45  A    between atoms: _109  and  _111
REMARK   46  A    between atoms: _111  and  _112
REMARK   47  A    between atoms: _111  and  _114
REMARK   48  A    between atoms: _114  and  _115
REMARK   49  A    between atoms: _115  and  _116
REMARK   50  A    between atoms: _116  and  _117
REMARK   51  A    between atoms: _117  and  _118
REMARK   52  A    between atoms: _122  and  _124
REMARK   53  A    between atoms: _124  and  _125
REMARK   54  A    between atoms: _124  and  _127
REMARK   55  A    between atoms: _127  and  _128
REMARK   56  A    between atoms: _128  and  _129
REMARK   57  A    between atoms: _132  and  _134
REMARK   58  A    between atoms: _134  and  _135
REMARK   59  A    between atoms: _134  and  _137
REMARK   60  A    between atoms: _137  and  _138
REMARK   61  A    between atoms: _140  and  _142
REMARK   62  A    between atoms: _142  and  _143
REMARK   63  A    between atoms: _142  and  _145
REMARK   64  A    between atoms: _145  and  _146
REMARK   65  A    between atoms: _151  and  _152
REMARK   66  A    between atoms: _154  and  _156
REMARK   67  A    between atoms: _156  and  _157
REMARK   68  A    between atoms: _156  and  _159
REMARK   69  A    between atoms: _159  and  _160
REMARK   70  A    between atoms: _160  and  _161
REMARK   71  A    between atoms: _161  and  _162
REMARK   72  A    between atoms: _171  and  _173
REMARK   73  A    between atoms: _173  and  _174
REMARK   74  A    between atoms: _173  and  _176
REMARK   75  A    between atoms: _176  and  _177
REMARK   76  A    between atoms: _177  and  _178
REMARK   77  A    between atoms: _178  and  _179
REMARK   78  A    between atoms: _179  and  _180
REMARK   79  A    between atoms: _184  and  _186
REMARK   80  A    between atoms: _186  and  _187
REMARK   81  A    between atoms: _186  and  _189
REMARK   82  A    between atoms: _189  and  _190
REMARK   83  A    between atoms: _190  and  _191
REMARK   84  A    between atoms: _191  and  _192
REMARK   85  A    between atoms: _192  and  CA_265
REMARK   86  A    between atoms: _194  and  _196
REMARK   87  A    between atoms: _196  and  _197
REMARK   88  A    between atoms: _196  and  _199
REMARK   89  A    between atoms: _199  and  _200
REMARK   90  A    between atoms: _200  and  _201
REMARK   91  A    between atoms: _208  and  _209
REMARK   92  A    between atoms: _215  and  _217
REMARK   93  A    between atoms: _217  and  _218
REMARK   94  A    between atoms: _217  and  _220
REMARK   95  A    between atoms: _220  and  _221
REMARK   96  A    between atoms: _223  and  _225
REMARK   97  A    between atoms: _225  and  _226
REMARK   98  A    between atoms: _225  and  _228
REMARK   99  A    between atoms: _228  and  _229
REMARK  100  A    between atoms: _229  and  _230
REMARK  101  A    between atoms: _230  and  _231
REMARK  102  A    between atoms: _231  and  _232
REMARK  103  A    between atoms: _236  and  _238
REMARK  104  A    between atoms: _238  and  _239
REMARK  105  A    between atoms: _238  and  _241
REMARK  106  A    between atoms: _241  and  _242
REMARK  107  A    between atoms: _245  and  _247
REMARK  108  A    between atoms: _247  and  _248
REMARK  109  A    between atoms: _247  and  _250
REMARK  110  A    between atoms: _250  and  _251
REMARK  111  A    between atoms: _253  and  _255
REMARK  112  A    between atoms: _255  and  _256
REMARK  113  A    between atoms: _255  and  _258
REMARK  114  A    between atoms: _258  and  _259
REMARK  115  A    between atoms: _259  and  _260
REMARK                            x       y       z     vdW  Elec       q    Type
REMARK                         _______ _______ _______ _____ _____    ______ ____
ROOT
ATOM      1  O   HOH     1     -98.735  10.490 -12.775  0.00  0.00    +0.000 OA
ENDROOT
TORSDOF 0
REMARK  Name = ../refined-set-2016/4ayu/4ayu_pocket.pdb
REMARK  115 active torsions:
REMARK  status: ('A' for Active; 'I' for Inactive)
REMARK    1  A    between atoms: _1  and  _3
REMARK    2  A    between atoms: _3  and  _4
REMARK    3  A    between atoms: _7  and  _9
REMARK    4  A    between atoms: _9  and  _10
REMARK    5  A    between atoms: _9  and  _12
REMARK    6  A    between atoms: _12  and  _13
REMARK    7  A    between atoms: _18  and  _19
REMARK    8  A    between atoms: _21  and  _23
REMARK    9  A    between atoms: _23  and  _24
REMARK   10  A    between atoms: _23  and  _26
REMARK   11  A    between atoms: _26  and  _27
REMARK   12  A    between atoms: _29  and  _31
REMARK   13  A    between atoms: _31  and  _32
REMARK   14  A    between atoms: _31  and  _34
REMARK   15  A    between atoms: _34  and  _35
REMARK   16  A    between atoms: _37  and  _39
REMARK   17  A    between atoms: _39  and  _40
REMARK   18  A    between atoms: _39  and  _42
REMARK   19  A    between atoms: _42  and  _43
REMARK   20  A    between atoms: _48  and  _50
REMARK   21  A    between atoms: _50  and  _51
REMARK   22  A    between atoms: _50  and  _53
REMARK   23  A    between atoms: _53  and  _54
REMARK   24  A    between atoms: _57  and  _59
REMARK   25  A    between atoms: _59  and  _60
REMARK   26  A    between atoms: _59  and  _62
REMARK   27  A    between atoms: _62  and  _63
REMARK   28  A    between atoms: _68  and  _70
REMARK   29  A    between atoms: _70  and  _71
REMARK   30  A    between atoms: _70  and  _73
REMARK   31  A    between atoms: _73  and  _74
REMARK   32  A    between atoms: _74  and  _75
REMARK   33  A    between atoms: _78  and  _80
REMARK   34  A    between atoms: _80  and  _81
REMARK   35  A    between atoms: _80  and  _83
REMARK   36  A    between atoms: _83  and  _84
REMARK   37  A    between atoms: _87  and  _89
REMARK   38  A    between atoms: _89  and  _90
REMARK   39  A    between atoms: _89  and  _92
REMARK   40  A    between atoms: _95  and  _97
REMARK   41  A    between atoms: _97  and  _98
REMARK   42  A    between atoms: _97  and  _100
REMARK   43  A    between atoms: _100  and  _101
REMARK   44  A    between atoms: _106  and  _107
REMARK   45  A    between atoms: _109  and  _111
REMARK   46  A    between atoms: _111  and  _112
REMARK   47  A    between atoms: _111  and  _114
REMARK   48  A    between atoms: _114  and  _115
REMARK   49  A    between atoms: _115  and  _116
REMARK   50  A    between atoms: _116  and  _117
REMARK   51  A    between atoms: _117  and  _118
REMARK   52  A    between atoms: _122  and  _124
REMARK   53  A    between atoms: _124  and  _125
REMARK   54  A    between atoms: _124  and  _127
REMARK   55  A    between atoms: _127  and  _128
REMARK   56  A    between atoms: _128  and  _129
REMARK   57  A    between atoms: _132  and  _134
REMARK   58  A    between atoms: _134  and  _135
REMARK   59  A    between atoms: _134  and  _137
REMARK   60  A    between atoms: _137  and  _138
REMARK   61  A    between atoms: _140  and  _142
REMARK   62  A    between atoms: _142  and  _143
REMARK   63  A    between atoms: _142  and  _145
REMARK   64  A    between atoms: _145  and  _146
REMARK   65  A    between atoms: _151  and  _152
REMARK   66  A    between atoms: _154  and  _156
REMARK   67  A    between atoms: _156  and  _157
REMARK   68  A    between atoms: _156  and  _159
REMARK   69  A    between atoms: _159  and  _160
REMARK   70  A    between atoms: _160  and  _161
REMARK   71  A    between atoms: _161  and  _162
REMARK   72  A    between atoms: _171  and  _173
REMARK   73  A    between atoms: _173  and  _174
REMARK   74  A    between atoms: _173  and  _176
REMARK   75  A    between atoms: _176  and  _177
REMARK   76  A    between atoms: _177  and  _178
REMARK   77  A    between atoms: _178  and  _179
REMARK   78  A    between atoms: _179  and  _180
REMARK   79  A    between atoms: _184  and  _186
REMARK   80  A    between atoms: _186  and  _187
REMARK   81  A    between atoms: _186  and  _189
REMARK   82  A    between atoms: _189  and  _190
REMARK   83  A    between atoms: _190  and  _191
REMARK   84  A    between atoms: _191  and  _192
REMARK   85  A    between atoms: _192  and  CA_265
REMARK   86  A    between atoms: _194  and  _196
REMARK   87  A    between atoms: _196  and  _197
REMARK   88  A    between atoms: _196  and  _199
REMARK   89  A    between atoms: _199  and  _200
REMARK   90  A    between atoms: _200  and  _201
REMARK   91  A    between atoms: _208  and  _209
REMARK   92  A    between atoms: _215  and  _217
REMARK   93  A    between atoms: _217  and  _218
REMARK   94  A    between atoms: _217  and  _220
REMARK   95  A    between atoms: _220  and  _221
REMARK   96  A    between atoms: _223  and  _225
REMARK   97  A    between atoms: _225  and  _226
REMARK   98  A    between atoms: _225  and  _228
REMARK   99  A    between atoms: _228  and  _229
REMARK  100  A    between atoms: _229  and  _230
REMARK  101  A    between atoms: _230  and  _231
REMARK  102  A    between atoms: _231  and  _232
REMARK  103  A    between atoms: _236  and  _238
REMARK  104  A    between atoms: _238  and  _239
REMARK  105  A    between atoms: _238  and  _241
REMARK  106  A    between atoms: _241  and  _242
REMARK  107  A    between atoms: _245  and  _247
REMARK  108  A    between atoms: _247  and  _248
REMARK  109  A    between atoms: _247  and  _250
REMARK  110  A    between atoms: _250  and  _251
REMARK  111  A    between atoms: _253  and  _255
REMARK  112  A    between atoms: _255  and  _256
REMARK  113  A    between atoms: _255  and  _258
REMARK  114  A    between atoms: _258  and  _259
REMARK  115  A    between atoms: _259  and  _260
REMARK                            x       y       z     vdW  Elec       q    Type
REMARK                         _______ _______ _______ _____ _____    ______ ____
ROOT
ATOM      1  O   HOH     1     -97.403  13.361 -25.979  0.00  0.00    +0.000 OA
ENDROOT
TORSDOF 0
REMARK  Name = ../refined-set-2016/4ayu/4ayu_pocket.pdb
REMARK  115 active torsions:
REMARK  status: ('A' for Active; 'I' for Inactive)
REMARK    1  A    between atoms: _1  and  _3
REMARK    2  A    between atoms: _3  and  _4
REMARK    3  A    between atoms: _7  and  _9
REMARK    4  A    between atoms: _9  and  _10
REMARK    5  A    between atoms: _9  and  _12
REMARK    6  A    between atoms: _12  and  _13
REMARK    7  A    between atoms: _18  and  _19
REMARK    8  A    between atoms: _21  and  _23
REMARK    9  A    between atoms: _23  and  _24
REMARK   10  A    between atoms: _23  and  _26
REMARK   11  A    between atoms: _26  and  _27
REMARK   12  A    between atoms: _29  and  _31
REMARK   13  A    between atoms: _31  and  _32
REMARK   14  A    between atoms: _31  and  _34
REMARK   15  A    between atoms: _34  and  _35
REMARK   16  A    between atoms: _37  and  _39
REMARK   17  A    between atoms: _39  and  _40
REMARK   18  A    between atoms: _39  and  _42
REMARK   19  A    between atoms: _42  and  _43
REMARK   20  A    between atoms: _48  and  _50
REMARK   21  A    between atoms: _50  and  _51
REMARK   22  A    between atoms: _50  and  _53
REMARK   23  A    between atoms: _53  and  _54
REMARK   24  A    between atoms: _57  and  _59
REMARK   25  A    between atoms: _59  and  _60
REMARK   26  A    between atoms: _59  and  _62
REMARK   27  A    between atoms: _62  and  _63
REMARK   28  A    between atoms: _68  and  _70
REMARK   29  A    between atoms: _70  and  _71
REMARK   30  A    between atoms: _70  and  _73
REMARK   31  A    between atoms: _73  and  _74
REMARK   32  A    between atoms: _74  and  _75
REMARK   33  A    between atoms: _78  and  _80
REMARK   34  A    between atoms: _80  and  _81
REMARK   35  A    between atoms: _80  and  _83
REMARK   36  A    between atoms: _83  and  _84
REMARK   37  A    between atoms: _87  and  _89
REMARK   38  A    between atoms: _89  and  _90
REMARK   39  A    between atoms: _89  and  _92
REMARK   40  A    between atoms: _95  and  _97
REMARK   41  A    between atoms: _97  and  _98
REMARK   42  A    between atoms: _97  and  _100
REMARK   43  A    between atoms: _100  and  _101
REMARK   44  A    between atoms: _106  and  _107
REMARK   45  A    between atoms: _109  and  _111
REMARK   46  A    between atoms: _111  and  _112
REMARK   47  A    between atoms: _111  and  _114
REMARK   48  A    between atoms: _114  and  _115
REMARK   49  A    between atoms: _115  and  _116
REMARK   50  A    between atoms: _116  and  _117
REMARK   51  A    between atoms: _117  and  _118
REMARK   52  A    between atoms: _122  and  _124
REMARK   53  A    between atoms: _124  and  _125
REMARK   54  A    between atoms: _124  and  _127
REMARK   55  A    between atoms: _127  and  _128
REMARK   56  A    between atoms: _128  and  _129
REMARK   57  A    between atoms: _132  and  _134
REMARK   58  A    between atoms: _134  and  _135
REMARK   59  A    between atoms: _134  and  _137
REMARK   60  A    between atoms: _137  and  _138
REMARK   61  A    between atoms: _140  and  _142
REMARK   62  A    between atoms: _142  and  _143
REMARK   63  A    between atoms: _142  and  _145
REMARK   64  A    between atoms: _145  and  _146
REMARK   65  A    between atoms: _151  and  _152
REMARK   66  A    between atoms: _154  and  _156
REMARK   67  A    between atoms: _156  and  _157
REMARK   68  A    between atoms: _156  and  _159
REMARK   69  A    between atoms: _159  and  _160
REMARK   70  A    between atoms: _160  and  _161
REMARK   71  A    between atoms: _161  and  _162
REMARK   72  A    between atoms: _171  and  _173
REMARK   73  A    between atoms: _173  and  _174
REMARK   74  A    between atoms: _173  and  _176
REMARK   75  A    between atoms: _176  and  _177
REMARK   76  A    between atoms: _177  and  _178
REMARK   77  A    between atoms: _178  and  _179
REMARK   78  A    between atoms: _179  and  _180
REMARK   79  A    between atoms: _184  and  _186
REMARK   80  A    between atoms: _186  and  _187
REMARK   81  A    between atoms: _186  and  _189
REMARK   82  A    between atoms: _189  and  _190
REMARK   83  A    between atoms: _190  and  _191
REMARK   84  A    between atoms: _191  and  _192
REMARK   85  A    between atoms: _192  and  CA_265
REMARK   86  A    between atoms: _194  and  _196
REMARK   87  A    between atoms: _196  and  _197
REMARK   88  A    between atoms: _196  and  _199
REMARK   89  A    between atoms: _199  and  _200
REMARK   90  A    between atoms: _200  and  _201
REMARK   91  A    between atoms: _208  and  _209
REMARK   92  A    between atoms: _215  and  _217
REMARK   93  A    between atoms: _217  and  _218
REMARK   94  A    between atoms: _217  and  _220
REMARK   95  A    between atoms: _220  and  _221
REMARK   96  A    between atoms: _223  and  _225
REMARK   97  A    between atoms: _225  and  _226
REMARK   98  A    between atoms: _225  and  _228
REMARK   99  A    between atoms: _228  and  _229
REMARK  100  A    between atoms: _229  and  _230
REMARK  101  A    between atoms: _230  and  _231
REMARK  102  A    between atoms: _231  and  _232
REMARK  103  A    between atoms: _236  and  _238
REMARK  104  A    between atoms: _238  and  _239
REMARK  105  A    between atoms: _238  and  _241
REMARK  106  A    between atoms: _241  and  _242
REMARK  107  A    between atoms: _245  and  _247
REMARK  108  A    between atoms: _247  and  _248
REMARK  109  A    between atoms: _247  and  _250
REMARK  110  A    between atoms: _250  and  _251
REMARK  111  A    between atoms: _253  and  _255
REMARK  112  A    between atoms: _255  and  _256
REMARK  113  A    between atoms: _255  and  _258
REMARK  114  A    between atoms: _258  and  _259
REMARK  115  A    between atoms: _259  and  _260
REMARK                            x       y       z     vdW  Elec       q    Type
REMARK                         _______ _______ _______ _____ _____    ______ ____
ROOT
ATOM      1  O   HOH     1    -100.858   3.236 -20.621  0.00  0.00    +0.000 OA
ENDROOT
TORSDOF 0
REMARK  Name = ../refined-set-2016/4ayu/4ayu_pocket.pdb
REMARK  115 active torsions:
REMARK  status: ('A' for Active; 'I' for Inactive)
REMARK    1  A    between atoms: _1  and  _3
REMARK    2  A    between atoms: _3  and  _4
REMARK    3  A    between atoms: _7  and  _9
REMARK    4  A    between atoms: _9  and  _10
REMARK    5  A    between atoms: _9  and  _12
REMARK    6  A    between atoms: _12  and  _13
REMARK    7  A    between atoms: _18  and  _19
REMARK    8  A    between atoms: _21  and  _23
REMARK    9  A    between atoms: _23  and  _24
REMARK   10  A    between atoms: _23  and  _26
REMARK   11  A    between atoms: _26  and  _27
REMARK   12  A    between atoms: _29  and  _31
REMARK   13  A    between atoms: _31  and  _32
REMARK   14  A    between atoms: _31  and  _34
REMARK   15  A    between atoms: _34  and  _35
REMARK   16  A    between atoms: _37  and  _39
REMARK   17  A    between atoms: _39  and  _40
REMARK   18  A    between atoms: _39  and  _42
REMARK   19  A    between atoms: _42  and  _43
REMARK   20  A    between atoms: _48  and  _50
REMARK   21  A    between atoms: _50  and  _51
REMARK   22  A    between atoms: _50  and  _53
REMARK   23  A    between atoms: _53  and  _54
REMARK   24  A    between atoms: _57  and  _59
REMARK   25  A    between atoms: _59  and  _60
REMARK   26  A    between atoms: _59  and  _62
REMARK   27  A    between atoms: _62  and  _63
REMARK   28  A    between atoms: _68  and  _70
REMARK   29  A    between atoms: _70  and  _71
REMARK   30  A    between atoms: _70  and  _73
REMARK   31  A    between atoms: _73  and  _74
REMARK   32  A    between atoms: _74  and  _75
REMARK   33  A    between atoms: _78  and  _80
REMARK   34  A    between atoms: _80  and  _81
REMARK   35  A    between atoms: _80  and  _83
REMARK   36  A    between atoms: _83  and  _84
REMARK   37  A    between atoms: _87  and  _89
REMARK   38  A    between atoms: _89  and  _90
REMARK   39  A    between atoms: _89  and  _92
REMARK   40  A    between atoms: _95  and  _97
REMARK   41  A    between atoms: _97  and  _98
REMARK   42  A    between atoms: _97  and  _100
REMARK   43  A    between atoms: _100  and  _101
REMARK   44  A    between atoms: _106  and  _107
REMARK   45  A    between atoms: _109  and  _111
REMARK   46  A    between atoms: _111  and  _112
REMARK   47  A    between atoms: _111  and  _114
REMARK   48  A    between atoms: _114  and  _115
REMARK   49  A    between atoms: _115  and  _116
REMARK   50  A    between atoms: _116  and  _117
REMARK   51  A    between atoms: _117  and  _118
REMARK   52  A    between atoms: _122  and  _124
REMARK   53  A    between atoms: _124  and  _125
REMARK   54  A    between atoms: _124  and  _127
REMARK   55  A    between atoms: _127  and  _128
REMARK   56  A    between atoms: _128  and  _129
REMARK   57  A    between atoms: _132  and  _134
REMARK   58  A    between atoms: _134  and  _135
REMARK   59  A    between atoms: _134  and  _137
REMARK   60  A    between atoms: _137  and  _138
REMARK   61  A    between atoms: _140  and  _142
REMARK   62  A    between atoms: _142  and  _143
REMARK   63  A    between atoms: _142  and  _145
REMARK   64  A    between atoms: _145  and  _146
REMARK   65  A    between atoms: _151  and  _152
REMARK   66  A    between atoms: _154  and  _156
REMARK   67  A    between atoms: _156  and  _157
REMARK   68  A    between atoms: _156  and  _159
REMARK   69  A    between atoms: _159  and  _160
REMARK   70  A    between atoms: _160  and  _161
REMARK   71  A    between atoms: _161  and  _162
REMARK   72  A    between atoms: _171  and  _173
REMARK   73  A    between atoms: _173  and  _174
REMARK   74  A    between atoms: _173  and  _176
REMARK   75  A    between atoms: _176  and  _177
REMARK   76  A    between atoms: _177  and  _178
REMARK   77  A    between atoms: _178  and  _179
REMARK   78  A    between atoms: _179  and  _180
REMARK   79  A    between atoms: _184  and  _186
REMARK   80  A    between atoms: _186  and  _187
REMARK   81  A    between atoms: _186  and  _189
REMARK   82  A    between atoms: _189  and  _190
REMARK   83  A    between atoms: _190  and  _191
REMARK   84  A    between atoms: _191  and  _192
REMARK   85  A    between atoms: _192  and  CA_265
REMARK   86  A    between atoms: _194  and  _196
REMARK   87  A    between atoms: _196  and  _197
REMARK   88  A    between atoms: _196  and  _199
REMARK   89  A    between atoms: _199  and  _200
REMARK   90  A    between atoms: _200  and  _201
REMARK   91  A    between atoms: _208  and  _209
REMARK   92  A    between atoms: _215  and  _217
REMARK   93  A    between atoms: _217  and  _218
REMARK   94  A    between atoms: _217  and  _220
REMARK   95  A    between atoms: _220  and  _221
REMARK   96  A    between atoms: _223  and  _225
REMARK   97  A    between atoms: _225  and  _226
REMARK   98  A    between atoms: _225  and  _228
REMARK   99  A    between atoms: _228  and  _229
REMARK  100  A    between atoms: _229  and  _230
REMARK  101  A    between atoms: _230  and  _231
REMARK  102  A    between atoms: _231  and  _232
REMARK  103  A    between atoms: _236  and  _238
REMARK  104  A    between atoms: _238  and  _239
REMARK  105  A    between atoms: _238  and  _241
REMARK  106  A    between atoms: _241  and  _242
REMARK  107  A    between atoms: _245  and  _247
REMARK  108  A    between atoms: _247  and  _248
REMARK  109  A    between atoms: _247  and  _250
REMARK  110  A    between atoms: _250  and  _251
REMARK  111  A    between atoms: _253  and  _255
REMARK  112  A    between atoms: _255  and  _256
REMARK  113  A    between atoms: _255  and  _258
REMARK  114  A    between atoms: _258  and  _259
REMARK  115  A    between atoms: _259  and  _260
REMARK                            x       y       z     vdW  Elec       q    Type
REMARK                         _______ _______ _______ _____ _____    ______ ____
ROOT
ATOM      1  O   HOH     1     -99.933  10.451 -16.965  0.00  0.00    +0.000 OA
ENDROOT
TORSDOF 0
REMARK  Name = ../refined-set-2016/4ayu/4ayu_pocket.pdb
REMARK  115 active torsions:
REMARK  status: ('A' for Active; 'I' for Inactive)
REMARK    1  A    between atoms: _1  and  _3
REMARK    2  A    between atoms: _3  and  _4
REMARK    3  A    between atoms: _7  and  _9
REMARK    4  A    between atoms: _9  and  _10
REMARK    5  A    between atoms: _9  and  _12
REMARK    6  A    between atoms: _12  and  _13
REMARK    7  A    between atoms: _18  and  _19
REMARK    8  A    between atoms: _21  and  _23
REMARK    9  A    between atoms: _23  and  _24
REMARK   10  A    between atoms: _23  and  _26
REMARK   11  A    between atoms: _26  and  _27
REMARK   12  A    between atoms: _29  and  _31
REMARK   13  A    between atoms: _31  and  _32
REMARK   14  A    between atoms: _31  and  _34
REMARK   15  A    between atoms: _34  and  _35
REMARK   16  A    between atoms: _37  and  _39
REMARK   17  A    between atoms: _39  and  _40
REMARK   18  A    between atoms: _39  and  _42
REMARK   19  A    between atoms: _42  and  _43
REMARK   20  A    between atoms: _48  and  _50
REMARK   21  A    between atoms: _50  and  _51
REMARK   22  A    between atoms: _50  and  _53
REMARK   23  A    between atoms: _53  and  _54
REMARK   24  A    between atoms: _57  and  _59
REMARK   25  A    between atoms: _59  and  _60
REMARK   26  A    between atoms: _59  and  _62
REMARK   27  A    between atoms: _62  and  _63
REMARK   28  A    between atoms: _68  and  _70
REMARK   29  A    between atoms: _70  and  _71
REMARK   30  A    between atoms: _70  and  _73
REMARK   31  A    between atoms: _73  and  _74
REMARK   32  A    between atoms: _74  and  _75
REMARK   33  A    between atoms: _78  and  _80
REMARK   34  A    between atoms: _80  and  _81
REMARK   35  A    between atoms: _80  and  _83
REMARK   36  A    between atoms: _83  and  _84
REMARK   37  A    between atoms: _87  and  _89
REMARK   38  A    between atoms: _89  and  _90
REMARK   39  A    between atoms: _89  and  _92
REMARK   40  A    between atoms: _95  and  _97
REMARK   41  A    between atoms: _97  and  _98
REMARK   42  A    between atoms: _97  and  _100
REMARK   43  A    between atoms: _100  and  _101
REMARK   44  A    between atoms: _106  and  _107
REMARK   45  A    between atoms: _109  and  _111
REMARK   46  A    between atoms: _111  and  _112
REMARK   47  A    between atoms: _111  and  _114
REMARK   48  A    between atoms: _114  and  _115
REMARK   49  A    between atoms: _115  and  _116
REMARK   50  A    between atoms: _116  and  _117
REMARK   51  A    between atoms: _117  and  _118
REMARK   52  A    between atoms: _122  and  _124
REMARK   53  A    between atoms: _124  and  _125
REMARK   54  A    between atoms: _124  and  _127
REMARK   55  A    between atoms: _127  and  _128
REMARK   56  A    between atoms: _128  and  _129
REMARK   57  A    between atoms: _132  and  _134
REMARK   58  A    between atoms: _134  and  _135
REMARK   59  A    between atoms: _134  and  _137
REMARK   60  A    between atoms: _137  and  _138
REMARK   61  A    between atoms: _140  and  _142
REMARK   62  A    between atoms: _142  and  _143
REMARK   63  A    between atoms: _142  and  _145
REMARK   64  A    between atoms: _145  and  _146
REMARK   65  A    between atoms: _151  and  _152
REMARK   66  A    between atoms: _154  and  _156
REMARK   67  A    between atoms: _156  and  _157
REMARK   68  A    between atoms: _156  and  _159
REMARK   69  A    between atoms: _159  and  _160
REMARK   70  A    between atoms: _160  and  _161
REMARK   71  A    between atoms: _161  and  _162
REMARK   72  A    between atoms: _171  and  _173
REMARK   73  A    between atoms: _173  and  _174
REMARK   74  A    between atoms: _173  and  _176
REMARK   75  A    between atoms: _176  and  _177
REMARK   76  A    between atoms: _177  and  _178
REMARK   77  A    between atoms: _178  and  _179
REMARK   78  A    between atoms: _179  and  _180
REMARK   79  A    between atoms: _184  and  _186
REMARK   80  A    between atoms: _186  and  _187
REMARK   81  A    between atoms: _186  and  _189
REMARK   82  A    between atoms: _189  and  _190
REMARK   83  A    between atoms: _190  and  _191
REMARK   84  A    between atoms: _191  and  _192
REMARK   85  A    between atoms: _192  and  CA_265
REMARK   86  A    between atoms: _194  and  _196
REMARK   87  A    between atoms: _196  and  _197
REMARK   88  A    between atoms: _196  and  _199
REMARK   89  A    between atoms: _199  and  _200
REMARK   90  A    between atoms: _200  and  _201
REMARK   91  A    between atoms: _208  and  _209
REMARK   92  A    between atoms: _215  and  _217
REMARK   93  A    between atoms: _217  and  _218
REMARK   94  A    between atoms: _217  and  _220
REMARK   95  A    between atoms: _220  and  _221
REMARK   96  A    between atoms: _223  and  _225
REMARK   97  A    between atoms: _225  and  _226
REMARK   98  A    between atoms: _225  and  _228
REMARK   99  A    between atoms: _228  and  _229
REMARK  100  A    between atoms: _229  and  _230
REMARK  101  A    between atoms: _230  and  _231
REMARK  102  A    between atoms: _231  and  _232
REMARK  103  A    between atoms: _236  and  _238
REMARK  104  A    between atoms: _238  and  _239
REMARK  105  A    between atoms: _238  and  _241
REMARK  106  A    between atoms: _241  and  _242
REMARK  107  A    between atoms: _245  and  _247
REMARK  108  A    between atoms: _247  and  _248
REMARK  109  A    between atoms: _247  and  _250
REMARK  110  A    between atoms: _250  and  _251
REMARK  111  A    between atoms: _253  and  _255
REMARK  112  A    between atoms: _255  and  _256
REMARK  113  A    between atoms: _255  and  _258
REMARK  114  A    between atoms: _258  and  _259
REMARK  115  A    between atoms: _259  and  _260
REMARK                            x       y       z     vdW  Elec       q    Type
REMARK                         _______ _______ _______ _____ _____    ______ ____
ROOT
ATOM      1  O   HOH     1     -98.979  11.487 -19.911  0.00  0.00    +0.000 OA
ENDROOT
TORSDOF 0
REMARK  Name = ../refined-set-2016/4ayu/4ayu_pocket.pdb
REMARK  115 active torsions:
REMARK  status: ('A' for Active; 'I' for Inactive)
REMARK    1  A    between atoms: _1  and  _3
REMARK    2  A    between atoms: _3  and  _4
REMARK    3  A    between atoms: _7  and  _9
REMARK    4  A    between atoms: _9  and  _10
REMARK    5  A    between atoms: _9  and  _12
REMARK    6  A    between atoms: _12  and  _13
REMARK    7  A    between atoms: _18  and  _19
REMARK    8  A    between atoms: _21  and  _23
REMARK    9  A    between atoms: _23  and  _24
REMARK   10  A    between atoms: _23  and  _26
REMARK   11  A    between atoms: _26  and  _27
REMARK   12  A    between atoms: _29  and  _31
REMARK   13  A    between atoms: _31  and  _32
REMARK   14  A    between atoms: _31  and  _34
REMARK   15  A    between atoms: _34  and  _35
REMARK   16  A    between atoms: _37  and  _39
REMARK   17  A    between atoms: _39  and  _40
REMARK   18  A    between atoms: _39  and  _42
REMARK   19  A    between atoms: _42  and  _43
REMARK   20  A    between atoms: _48  and  _50
REMARK   21  A    between atoms: _50  and  _51
REMARK   22  A    between atoms: _50  and  _53
REMARK   23  A    between atoms: _53  and  _54
REMARK   24  A    between atoms: _57  and  _59
REMARK   25  A    between atoms: _59  and  _60
REMARK   26  A    between atoms: _59  and  _62
REMARK   27  A    between atoms: _62  and  _63
REMARK   28  A    between atoms: _68  and  _70
REMARK   29  A    between atoms: _70  and  _71
REMARK   30  A    between atoms: _70  and  _73
REMARK   31  A    between atoms: _73  and  _74
REMARK   32  A    between atoms: _74  and  _75
REMARK   33  A    between atoms: _78  and  _80
REMARK   34  A    between atoms: _80  and  _81
REMARK   35  A    between atoms: _80  and  _83
REMARK   36  A    between atoms: _83  and  _84
REMARK   37  A    between atoms: _87  and  _89
REMARK   38  A    between atoms: _89  and  _90
REMARK   39  A    between atoms: _89  and  _92
REMARK   40  A    between atoms: _95  and  _97
REMARK   41  A    between atoms: _97  and  _98
REMARK   42  A    between atoms: _97  and  _100
REMARK   43  A    between atoms: _100  and  _101
REMARK   44  A    between atoms: _106  and  _107
REMARK   45  A    between atoms: _109  and  _111
REMARK   46  A    between atoms: _111  and  _112
REMARK   47  A    between atoms: _111  and  _114
REMARK   48  A    between atoms: _114  and  _115
REMARK   49  A    between atoms: _115  and  _116
REMARK   50  A    between atoms: _116  and  _117
REMARK   51  A    between atoms: _117  and  _118
REMARK   52  A    between atoms: _122  and  _124
REMARK   53  A    between atoms: _124  and  _125
REMARK   54  A    between atoms: _124  and  _127
REMARK   55  A    between atoms: _127  and  _128
REMARK   56  A    between atoms: _128  and  _129
REMARK   57  A    between atoms: _132  and  _134
REMARK   58  A    between atoms: _134  and  _135
REMARK   59  A    between atoms: _134  and  _137
REMARK   60  A    between atoms: _137  and  _138
REMARK   61  A    between atoms: _140  and  _142
REMARK   62  A    between atoms: _142  and  _143
REMARK   63  A    between atoms: _142  and  _145
REMARK   64  A    between atoms: _145  and  _146
REMARK   65  A    between atoms: _151  and  _152
REMARK   66  A    between atoms: _154  and  _156
REMARK   67  A    between atoms: _156  and  _157
REMARK   68  A    between atoms: _156  and  _159
REMARK   69  A    between atoms: _159  and  _160
REMARK   70  A    between atoms: _160  and  _161
REMARK   71  A    between atoms: _161  and  _162
REMARK   72  A    between atoms: _171  and  _173
REMARK   73  A    between atoms: _173  and  _174
REMARK   74  A    between atoms: _173  and  _176
REMARK   75  A    between atoms: _176  and  _177
REMARK   76  A    between atoms: _177  and  _178
REMARK   77  A    between atoms: _178  and  _179
REMARK   78  A    between atoms: _179  and  _180
REMARK   79  A    between atoms: _184  and  _186
REMARK   80  A    between atoms: _186  and  _187
REMARK   81  A    between atoms: _186  and  _189
REMARK   82  A    between atoms: _189  and  _190
REMARK   83  A    between atoms: _190  and  _191
REMARK   84  A    between atoms: _191  and  _192
REMARK   85  A    between atoms: _192  and  CA_265
REMARK   86  A    between atoms: _194  and  _196
REMARK   87  A    between atoms: _196  and  _197
REMARK   88  A    between atoms: _196  and  _199
REMARK   89  A    between atoms: _199  and  _200
REMARK   90  A    between atoms: _200  and  _201
REMARK   91  A    between atoms: _208  and  _209
REMARK   92  A    between atoms: _215  and  _217
REMARK   93  A    between atoms: _217  and  _218
REMARK   94  A    between atoms: _217  and  _220
REMARK   95  A    between atoms: _220  and  _221
REMARK   96  A    between atoms: _223  and  _225
REMARK   97  A    between atoms: _225  and  _226
REMARK   98  A    between atoms: _225  and  _228
REMARK   99  A    between atoms: _228  and  _229
REMARK  100  A    between atoms: _229  and  _230
REMARK  101  A    between atoms: _230  and  _231
REMARK  102  A    between atoms: _231  and  _232
REMARK  103  A    between atoms: _236  and  _238
REMARK  104  A    between atoms: _238  and  _239
REMARK  105  A    between atoms: _238  and  _241
REMARK  106  A    between atoms: _241  and  _242
REMARK  107  A    between atoms: _245  and  _247
REMARK  108  A    between atoms: _247  and  _248
REMARK  109  A    between atoms: _247  and  _250
REMARK  110  A    between atoms: _250  and  _251
REMARK  111  A    between atoms: _253  and  _255
REMARK  112  A    between atoms: _255  and  _256
REMARK  113  A    between atoms: _255  and  _258
REMARK  114  A    between atoms: _258  and  _259
REMARK  115  A    between atoms: _259  and  _260
REMARK                            x       y       z     vdW  Elec       q    Type
REMARK                         _______ _______ _______ _____ _____    ______ ____
ROOT
ATOM      1  O   HOH     1     -97.745   8.008 -14.293  0.00  0.00    +0.000 OA
ENDROOT
TORSDOF 0
REMARK  Name = ../refined-set-2016/4ayu/4ayu_pocket.pdb
REMARK  115 active torsions:
REMARK  status: ('A' for Active; 'I' for Inactive)
REMARK    1  A    between atoms: _1  and  _3
REMARK    2  A    between atoms: _3  and  _4
REMARK    3  A    between atoms: _7  and  _9
REMARK    4  A    between atoms: _9  and  _10
REMARK    5  A    between atoms: _9  and  _12
REMARK    6  A    between atoms: _12  and  _13
REMARK    7  A    between atoms: _18  and  _19
REMARK    8  A    between atoms: _21  and  _23
REMARK    9  A    between atoms: _23  and  _24
REMARK   10  A    between atoms: _23  and  _26
REMARK   11  A    between atoms: _26  and  _27
REMARK   12  A    between atoms: _29  and  _31
REMARK   13  A    between atoms: _31  and  _32
REMARK   14  A    between atoms: _31  and  _34
REMARK   15  A    between atoms: _34  and  _35
REMARK   16  A    between atoms: _37  and  _39
REMARK   17  A    between atoms: _39  and  _40
REMARK   18  A    between atoms: _39  and  _42
REMARK   19  A    between atoms: _42  and  _43
REMARK   20  A    between atoms: _48  and  _50
REMARK   21  A    between atoms: _50  and  _51
REMARK   22  A    between atoms: _50  and  _53
REMARK   23  A    between atoms: _53  and  _54
REMARK   24  A    between atoms: _57  and  _59
REMARK   25  A    between atoms: _59  and  _60
REMARK   26  A    between atoms: _59  and  _62
REMARK   27  A    between atoms: _62  and  _63
REMARK   28  A    between atoms: _68  and  _70
REMARK   29  A    between atoms: _70  and  _71
REMARK   30  A    between atoms: _70  and  _73
REMARK   31  A    between atoms: _73  and  _74
REMARK   32  A    between atoms: _74  and  _75
REMARK   33  A    between atoms: _78  and  _80
REMARK   34  A    between atoms: _80  and  _81
REMARK   35  A    between atoms: _80  and  _83
REMARK   36  A    between atoms: _83  and  _84
REMARK   37  A    between atoms: _87  and  _89
REMARK   38  A    between atoms: _89  and  _90
REMARK   39  A    between atoms: _89  and  _92
REMARK   40  A    between atoms: _95  and  _97
REMARK   41  A    between atoms: _97  and  _98
REMARK   42  A    between atoms: _97  and  _100
REMARK   43  A    between atoms: _100  and  _101
REMARK   44  A    between atoms: _106  and  _107
REMARK   45  A    between atoms: _109  and  _111
REMARK   46  A    between atoms: _111  and  _112
REMARK   47  A    between atoms: _111  and  _114
REMARK   48  A    between atoms: _114  and  _115
REMARK   49  A    between atoms: _115  and  _116
REMARK   50  A    between atoms: _116  and  _117
REMARK   51  A    between atoms: _117  and  _118
REMARK   52  A    between atoms: _122  and  _124
REMARK   53  A    between atoms: _124  and  _125
REMARK   54  A    between atoms: _124  and  _127
REMARK   55  A    between atoms: _127  and  _128
REMARK   56  A    between atoms: _128  and  _129
REMARK   57  A    between atoms: _132  and  _134
REMARK   58  A    between atoms: _134  and  _135
REMARK   59  A    between atoms: _134  and  _137
REMARK   60  A    between atoms: _137  and  _138
REMARK   61  A    between atoms: _140  and  _142
REMARK   62  A    between atoms: _142  and  _143
REMARK   63  A    between atoms: _142  and  _145
REMARK   64  A    between atoms: _145  and  _146
REMARK   65  A    between atoms: _151  and  _152
REMARK   66  A    between atoms: _154  and  _156
REMARK   67  A    between atoms: _156  and  _157
REMARK   68  A    between atoms: _156  and  _159
REMARK   69  A    between atoms: _159  and  _160
REMARK   70  A    between atoms: _160  and  _161
REMARK   71  A    between atoms: _161  and  _162
REMARK   72  A    between atoms: _171  and  _173
REMARK   73  A    between atoms: _173  and  _174
REMARK   74  A    between atoms: _173  and  _176
REMARK   75  A    between atoms: _176  and  _177
REMARK   76  A    between atoms: _177  and  _178
REMARK   77  A    between atoms: _178  and  _179
REMARK   78  A    between atoms: _179  and  _180
REMARK   79  A    between atoms: _184  and  _186
REMARK   80  A    between atoms: _186  and  _187
REMARK   81  A    between atoms: _186  and  _189
REMARK   82  A    between atoms: _189  and  _190
REMARK   83  A    between atoms: _190  and  _191
REMARK   84  A    between atoms: _191  and  _192
REMARK   85  A    between atoms: _192  and  CA_265
REMARK   86  A    between atoms: _194  and  _196
REMARK   87  A    between atoms: _196  and  _197
REMARK   88  A    between atoms: _196  and  _199
REMARK   89  A    between atoms: _199  and  _200
REMARK   90  A    between atoms: _200  and  _201
REMARK   91  A    between atoms: _208  and  _209
REMARK   92  A    between atoms: _215  and  _217
REMARK   93  A    between atoms: _217  and  _218
REMARK   94  A    between atoms: _217  and  _220
REMARK   95  A    between atoms: _220  and  _221
REMARK   96  A    between atoms: _223  and  _225
REMARK   97  A    between atoms: _225  and  _226
REMARK   98  A    between atoms: _225  and  _228
REMARK   99  A    between atoms: _228  and  _229
REMARK  100  A    between atoms: _229  and  _230
REMARK  101  A    between atoms: _230  and  _231
REMARK  102  A    between atoms: _231  and  _232
REMARK  103  A    between atoms: _236  and  _238
REMARK  104  A    between atoms: _238  and  _239
REMARK  105  A    between atoms: _238  and  _241
REMARK  106  A    between atoms: _241  and  _242
REMARK  107  A    between atoms: _245  and  _247
REMARK  108  A    between atoms: _247  and  _248
REMARK  109  A    between atoms: _247  and  _250
REMARK  110  A    between atoms: _250  and  _251
REMARK  111  A    between atoms: _253  and  _255
REMARK  112  A    between atoms: _255  and  _256
REMARK  113  A    between atoms: _255  and  _258
REMARK  114  A    between atoms: _258  and  _259
REMARK  115  A    between atoms: _259  and  _260
REMARK                            x       y       z     vdW  Elec       q    Type
REMARK                         _______ _______ _______ _____ _____    ______ ____
ROOT
ATOM      1  O   HOH     1     -95.753   9.336 -15.944  0.00  0.00    +0.000 OA
ENDROOT
TORSDOF 0
REMARK  Name = ../refined-set-2016/4ayu/4ayu_pocket.pdb
REMARK  115 active torsions:
REMARK  status: ('A' for Active; 'I' for Inactive)
REMARK    1  A    between atoms: _1  and  _3
REMARK    2  A    between atoms: _3  and  _4
REMARK    3  A    between atoms: _7  and  _9
REMARK    4  A    between atoms: _9  and  _10
REMARK    5  A    between atoms: _9  and  _12
REMARK    6  A    between atoms: _12  and  _13
REMARK    7  A    between atoms: _18  and  _19
REMARK    8  A    between atoms: _21  and  _23
REMARK    9  A    between atoms: _23  and  _24
REMARK   10  A    between atoms: _23  and  _26
REMARK   11  A    between atoms: _26  and  _27
REMARK   12  A    between atoms: _29  and  _31
REMARK   13  A    between atoms: _31  and  _32
REMARK   14  A    between atoms: _31  and  _34
REMARK   15  A    between atoms: _34  and  _35
REMARK   16  A    between atoms: _37  and  _39
REMARK   17  A    between atoms: _39  and  _40
REMARK   18  A    between atoms: _39  and  _42
REMARK   19  A    between atoms: _42  and  _43
REMARK   20  A    between atoms: _48  and  _50
REMARK   21  A    between atoms: _50  and  _51
REMARK   22  A    between atoms: _50  and  _53
REMARK   23  A    between atoms: _53  and  _54
REMARK   24  A    between atoms: _57  and  _59
REMARK   25  A    between atoms: _59  and  _60
REMARK   26  A    between atoms: _59  and  _62
REMARK   27  A    between atoms: _62  and  _63
REMARK   28  A    between atoms: _68  and  _70
REMARK   29  A    between atoms: _70  and  _71
REMARK   30  A    between atoms: _70  and  _73
REMARK   31  A    between atoms: _73  and  _74
REMARK   32  A    between atoms: _74  and  _75
REMARK   33  A    between atoms: _78  and  _80
REMARK   34  A    between atoms: _80  and  _81
REMARK   35  A    between atoms: _80  and  _83
REMARK   36  A    between atoms: _83  and  _84
REMARK   37  A    between atoms: _87  and  _89
REMARK   38  A    between atoms: _89  and  _90
REMARK   39  A    between atoms: _89  and  _92
REMARK   40  A    between atoms: _95  and  _97
REMARK   41  A    between atoms: _97  and  _98
REMARK   42  A    between atoms: _97  and  _100
REMARK   43  A    between atoms: _100  and  _101
REMARK   44  A    between atoms: _106  and  _107
REMARK   45  A    between atoms: _109  and  _111
REMARK   46  A    between atoms: _111  and  _112
REMARK   47  A    between atoms: _111  and  _114
REMARK   48  A    between atoms: _114  and  _115
REMARK   49  A    between atoms: _115  and  _116
REMARK   50  A    between atoms: _116  and  _117
REMARK   51  A    between atoms: _117  and  _118
REMARK   52  A    between atoms: _122  and  _124
REMARK   53  A    between atoms: _124  and  _125
REMARK   54  A    between atoms: _124  and  _127
REMARK   55  A    between atoms: _127  and  _128
REMARK   56  A    between atoms: _128  and  _129
REMARK   57  A    between atoms: _132  and  _134
REMARK   58  A    between atoms: _134  and  _135
REMARK   59  A    between atoms: _134  and  _137
REMARK   60  A    between atoms: _137  and  _138
REMARK   61  A    between atoms: _140  and  _142
REMARK   62  A    between atoms: _142  and  _143
REMARK   63  A    between atoms: _142  and  _145
REMARK   64  A    between atoms: _145  and  _146
REMARK   65  A    between atoms: _151  and  _152
REMARK   66  A    between atoms: _154  and  _156
REMARK   67  A    between atoms: _156  and  _157
REMARK   68  A    between atoms: _156  and  _159
REMARK   69  A    between atoms: _159  and  _160
REMARK   70  A    between atoms: _160  and  _161
REMARK   71  A    between atoms: _161  and  _162
REMARK   72  A    between atoms: _171  and  _173
REMARK   73  A    between atoms: _173  and  _174
REMARK   74  A    between atoms: _173  and  _176
REMARK   75  A    between atoms: _176  and  _177
REMARK   76  A    between atoms: _177  and  _178
REMARK   77  A    between atoms: _178  and  _179
REMARK   78  A    between atoms: _179  and  _180
REMARK   79  A    between atoms: _184  and  _186
REMARK   80  A    between atoms: _186  and  _187
REMARK   81  A    between atoms: _186  and  _189
REMARK   82  A    between atoms: _189  and  _190
REMARK   83  A    between atoms: _190  and  _191
REMARK   84  A    between atoms: _191  and  _192
REMARK   85  A    between atoms: _192  and  CA_265
REMARK   86  A    between atoms: _194  and  _196
REMARK   87  A    between atoms: _196  and  _197
REMARK   88  A    between atoms: _196  and  _199
REMARK   89  A    between atoms: _199  and  _200
REMARK   90  A    between atoms: _200  and  _201
REMARK   91  A    between atoms: _208  and  _209
REMARK   92  A    between atoms: _215  and  _217
REMARK   93  A    between atoms: _217  and  _218
REMARK   94  A    between atoms: _217  and  _220
REMARK   95  A    between atoms: _220  and  _221
REMARK   96  A    between atoms: _223  and  _225
REMARK   97  A    between atoms: _225  and  _226
REMARK   98  A    between atoms: _225  and  _228
REMARK   99  A    between atoms: _228  and  _229
REMARK  100  A    between atoms: _229  and  _230
REMARK  101  A    between atoms: _230  and  _231
REMARK  102  A    between atoms: _231  and  _232
REMARK  103  A    between atoms: _236  and  _238
REMARK  104  A    between atoms: _238  and  _239
REMARK  105  A    between atoms: _238  and  _241
REMARK  106  A    between atoms: _241  and  _242
REMARK  107  A    between atoms: _245  and  _247
REMARK  108  A    between atoms: _247  and  _248
REMARK  109  A    between atoms: _247  and  _250
REMARK  110  A    between atoms: _250  and  _251
REMARK  111  A    between atoms: _253  and  _255
REMARK  112  A    between atoms: _255  and  _256
REMARK  113  A    between atoms: _255  and  _258
REMARK  114  A    between atoms: _258  and  _259
REMARK  115  A    between atoms: _259  and  _260
REMARK                            x       y       z     vdW  Elec       q    Type
REMARK                         _______ _______ _______ _____ _____    ______ ____
ROOT
ATOM      1  O   HOH     1     -89.322   7.240 -21.794  0.00  0.00    +0.000 OA
ENDROOT
TORSDOF 0
REMARK  Name = ../refined-set-2016/4ayu/4ayu_pocket.pdb
REMARK  115 active torsions:
REMARK  status: ('A' for Active; 'I' for Inactive)
REMARK    1  A    between atoms: _1  and  _3
REMARK    2  A    between atoms: _3  and  _4
REMARK    3  A    between atoms: _7  and  _9
REMARK    4  A    between atoms: _9  and  _10
REMARK    5  A    between atoms: _9  and  _12
REMARK    6  A    between atoms: _12  and  _13
REMARK    7  A    between atoms: _18  and  _19
REMARK    8  A    between atoms: _21  and  _23
REMARK    9  A    between atoms: _23  and  _24
REMARK   10  A    between atoms: _23  and  _26
REMARK   11  A    between atoms: _26  and  _27
REMARK   12  A    between atoms: _29  and  _31
REMARK   13  A    between atoms: _31  and  _32
REMARK   14  A    between atoms: _31  and  _34
REMARK   15  A    between atoms: _34  and  _35
REMARK   16  A    between atoms: _37  and  _39
REMARK   17  A    between atoms: _39  and  _40
REMARK   18  A    between atoms: _39  and  _42
REMARK   19  A    between atoms: _42  and  _43
REMARK   20  A    between atoms: _48  and  _50
REMARK   21  A    between atoms: _50  and  _51
REMARK   22  A    between atoms: _50  and  _53
REMARK   23  A    between atoms: _53  and  _54
REMARK   24  A    between atoms: _57  and  _59
REMARK   25  A    between atoms: _59  and  _60
REMARK   26  A    between atoms: _59  and  _62
REMARK   27  A    between atoms: _62  and  _63
REMARK   28  A    between atoms: _68  and  _70
REMARK   29  A    between atoms: _70  and  _71
REMARK   30  A    between atoms: _70  and  _73
REMARK   31  A    between atoms: _73  and  _74
REMARK   32  A    between atoms: _74  and  _75
REMARK   33  A    between atoms: _78  and  _80
REMARK   34  A    between atoms: _80  and  _81
REMARK   35  A    between atoms: _80  and  _83
REMARK   36  A    between atoms: _83  and  _84
REMARK   37  A    between atoms: _87  and  _89
REMARK   38  A    between atoms: _89  and  _90
REMARK   39  A    between atoms: _89  and  _92
REMARK   40  A    between atoms: _95  and  _97
REMARK   41  A    between atoms: _97  and  _98
REMARK   42  A    between atoms: _97  and  _100
REMARK   43  A    between atoms: _100  and  _101
REMARK   44  A    between atoms: _106  and  _107
REMARK   45  A    between atoms: _109  and  _111
REMARK   46  A    between atoms: _111  and  _112
REMARK   47  A    between atoms: _111  and  _114
REMARK   48  A    between atoms: _114  and  _115
REMARK   49  A    between atoms: _115  and  _116
REMARK   50  A    between atoms: _116  and  _117
REMARK   51  A    between atoms: _117  and  _118
REMARK   52  A    between atoms: _122  and  _124
REMARK   53  A    between atoms: _124  and  _125
REMARK   54  A    between atoms: _124  and  _127
REMARK   55  A    between atoms: _127  and  _128
REMARK   56  A    between atoms: _128  and  _129
REMARK   57  A    between atoms: _132  and  _134
REMARK   58  A    between atoms: _134  and  _135
REMARK   59  A    between atoms: _134  and  _137
REMARK   60  A    between atoms: _137  and  _138
REMARK   61  A    between atoms: _140  and  _142
REMARK   62  A    between atoms: _142  and  _143
REMARK   63  A    between atoms: _142  and  _145
REMARK   64  A    between atoms: _145  and  _146
REMARK   65  A    between atoms: _151  and  _152
REMARK   66  A    between atoms: _154  and  _156
REMARK   67  A    between atoms: _156  and  _157
REMARK   68  A    between atoms: _156  and  _159
REMARK   69  A    between atoms: _159  and  _160
REMARK   70  A    between atoms: _160  and  _161
REMARK   71  A    between atoms: _161  and  _162
REMARK   72  A    between atoms: _171  and  _173
REMARK   73  A    between atoms: _173  and  _174
REMARK   74  A    between atoms: _173  and  _176
REMARK   75  A    between atoms: _176  and  _177
REMARK   76  A    between atoms: _177  and  _178
REMARK   77  A    between atoms: _178  and  _179
REMARK   78  A    between atoms: _179  and  _180
REMARK   79  A    between atoms: _184  and  _186
REMARK   80  A    between atoms: _186  and  _187
REMARK   81  A    between atoms: _186  and  _189
REMARK   82  A    between atoms: _189  and  _190
REMARK   83  A    between atoms: _190  and  _191
REMARK   84  A    between atoms: _191  and  _192
REMARK   85  A    between atoms: _192  and  CA_265
REMARK   86  A    between atoms: _194  and  _196
REMARK   87  A    between atoms: _196  and  _197
REMARK   88  A    between atoms: _196  and  _199
REMARK   89  A    between atoms: _199  and  _200
REMARK   90  A    between atoms: _200  and  _201
REMARK   91  A    between atoms: _208  and  _209
REMARK   92  A    between atoms: _215  and  _217
REMARK   93  A    between atoms: _217  and  _218
REMARK   94  A    between atoms: _217  and  _220
REMARK   95  A    between atoms: _220  and  _221
REMARK   96  A    between atoms: _223  and  _225
REMARK   97  A    between atoms: _225  and  _226
REMARK   98  A    between atoms: _225  and  _228
REMARK   99  A    between atoms: _228  and  _229
REMARK  100  A    between atoms: _229  and  _230
REMARK  101  A    between atoms: _230  and  _231
REMARK  102  A    between atoms: _231  and  _232
REMARK  103  A    between atoms: _236  and  _238
REMARK  104  A    between atoms: _238  and  _239
REMARK  105  A    between atoms: _238  and  _241
REMARK  106  A    between atoms: _241  and  _242
REMARK  107  A    between atoms: _245  and  _247
REMARK  108  A    between atoms: _247  and  _248
REMARK  109  A    between atoms: _247  and  _250
REMARK  110  A    between atoms: _250  and  _251
REMARK  111  A    between atoms: _253  and  _255
REMARK  112  A    between atoms: _255  and  _256
REMARK  113  A    between atoms: _255  and  _258
REMARK  114  A    between atoms: _258  and  _259
REMARK  115  A    between atoms: _259  and  _260
REMARK                            x       y       z     vdW  Elec       q    Type
REMARK                         _______ _______ _______ _____ _____    ______ ____
ROOT
ATOM      1  O   HOH     1     -86.655   5.451 -20.739  0.00  0.00    +0.000 OA
ENDROOT
TORSDOF 0
REMARK  Name = ../refined-set-2016/4ayu/4ayu_pocket.pdb
REMARK  115 active torsions:
REMARK  status: ('A' for Active; 'I' for Inactive)
REMARK    1  A    between atoms: _1  and  _3
REMARK    2  A    between atoms: _3  and  _4
REMARK    3  A    between atoms: _7  and  _9
REMARK    4  A    between atoms: _9  and  _10
REMARK    5  A    between atoms: _9  and  _12
REMARK    6  A    between atoms: _12  and  _13
REMARK    7  A    between atoms: _18  and  _19
REMARK    8  A    between atoms: _21  and  _23
REMARK    9  A    between atoms: _23  and  _24
REMARK   10  A    between atoms: _23  and  _26
REMARK   11  A    between atoms: _26  and  _27
REMARK   12  A    between atoms: _29  and  _31
REMARK   13  A    between atoms: _31  and  _32
REMARK   14  A    between atoms: _31  and  _34
REMARK   15  A    between atoms: _34  and  _35
REMARK   16  A    between atoms: _37  and  _39
REMARK   17  A    between atoms: _39  and  _40
REMARK   18  A    between atoms: _39  and  _42
REMARK   19  A    between atoms: _42  and  _43
REMARK   20  A    between atoms: _48  and  _50
REMARK   21  A    between atoms: _50  and  _51
REMARK   22  A    between atoms: _50  and  _53
REMARK   23  A    between atoms: _53  and  _54
REMARK   24  A    between atoms: _57  and  _59
REMARK   25  A    between atoms: _59  and  _60
REMARK   26  A    between atoms: _59  and  _62
REMARK   27  A    between atoms: _62  and  _63
REMARK   28  A    between atoms: _68  and  _70
REMARK   29  A    between atoms: _70  and  _71
REMARK   30  A    between atoms: _70  and  _73
REMARK   31  A    between atoms: _73  and  _74
REMARK   32  A    between atoms: _74  and  _75
REMARK   33  A    between atoms: _78  and  _80
REMARK   34  A    between atoms: _80  and  _81
REMARK   35  A    between atoms: _80  and  _83
REMARK   36  A    between atoms: _83  and  _84
REMARK   37  A    between atoms: _87  and  _89
REMARK   38  A    between atoms: _89  and  _90
REMARK   39  A    between atoms: _89  and  _92
REMARK   40  A    between atoms: _95  and  _97
REMARK   41  A    between atoms: _97  and  _98
REMARK   42  A    between atoms: _97  and  _100
REMARK   43  A    between atoms: _100  and  _101
REMARK   44  A    between atoms: _106  and  _107
REMARK   45  A    between atoms: _109  and  _111
REMARK   46  A    between atoms: _111  and  _112
REMARK   47  A    between atoms: _111  and  _114
REMARK   48  A    between atoms: _114  and  _115
REMARK   49  A    between atoms: _115  and  _116
REMARK   50  A    between atoms: _116  and  _117
REMARK   51  A    between atoms: _117  and  _118
REMARK   52  A    between atoms: _122  and  _124
REMARK   53  A    between atoms: _124  and  _125
REMARK   54  A    between atoms: _124  and  _127
REMARK   55  A    between atoms: _127  and  _128
REMARK   56  A    between atoms: _128  and  _129
REMARK   57  A    between atoms: _132  and  _134
REMARK   58  A    between atoms: _134  and  _135
REMARK   59  A    between atoms: _134  and  _137
REMARK   60  A    between atoms: _137  and  _138
REMARK   61  A    between atoms: _140  and  _142
REMARK   62  A    between atoms: _142  and  _143
REMARK   63  A    between atoms: _142  and  _145
REMARK   64  A    between atoms: _145  and  _146
REMARK   65  A    between atoms: _151  and  _152
REMARK   66  A    between atoms: _154  and  _156
REMARK   67  A    between atoms: _156  and  _157
REMARK   68  A    between atoms: _156  and  _159
REMARK   69  A    between atoms: _159  and  _160
REMARK   70  A    between atoms: _160  and  _161
REMARK   71  A    between atoms: _161  and  _162
REMARK   72  A    between atoms: _171  and  _173
REMARK   73  A    between atoms: _173  and  _174
REMARK   74  A    between atoms: _173  and  _176
REMARK   75  A    between atoms: _176  and  _177
REMARK   76  A    between atoms: _177  and  _178
REMARK   77  A    between atoms: _178  and  _179
REMARK   78  A    between atoms: _179  and  _180
REMARK   79  A    between atoms: _184  and  _186
REMARK   80  A    between atoms: _186  and  _187
REMARK   81  A    between atoms: _186  and  _189
REMARK   82  A    between atoms: _189  and  _190
REMARK   83  A    between atoms: _190  and  _191
REMARK   84  A    between atoms: _191  and  _192
REMARK   85  A    between atoms: _192  and  CA_265
REMARK   86  A    between atoms: _194  and  _196
REMARK   87  A    between atoms: _196  and  _197
REMARK   88  A    between atoms: _196  and  _199
REMARK   89  A    between atoms: _199  and  _200
REMARK   90  A    between atoms: _200  and  _201
REMARK   91  A    between atoms: _208  and  _209
REMARK   92  A    between atoms: _215  and  _217
REMARK   93  A    between atoms: _217  and  _218
REMARK   94  A    between atoms: _217  and  _220
REMARK   95  A    between atoms: _220  and  _221
REMARK   96  A    between atoms: _223  and  _225
REMARK   97  A    between atoms: _225  and  _226
REMARK   98  A    between atoms: _225  and  _228
REMARK   99  A    between atoms: _228  and  _229
REMARK  100  A    between atoms: _229  and  _230
REMARK  101  A    between atoms: _230  and  _231
REMARK  102  A    between atoms: _231  and  _232
REMARK  103  A    between atoms: _236  and  _238
REMARK  104  A    between atoms: _238  and  _239
REMARK  105  A    between atoms: _238  and  _241
REMARK  106  A    between atoms: _241  and  _242
REMARK  107  A    between atoms: _245  and  _247
REMARK  108  A    between atoms: _247  and  _248
REMARK  109  A    between atoms: _247  and  _250
REMARK  110  A    between atoms: _250  and  _251
REMARK  111  A    between atoms: _253  and  _255
REMARK  112  A    between atoms: _255  and  _256
REMARK  113  A    between atoms: _255  and  _258
REMARK  114  A    between atoms: _258  and  _259
REMARK  115  A    between atoms: _259  and  _260
REMARK                            x       y       z     vdW  Elec       q    Type
REMARK                         _______ _______ _______ _____ _____    ______ ____
ROOT
ATOM      1  O   HOH     1     -89.499   6.711 -18.289  0.00  0.00    +0.000 OA
ENDROOT
TORSDOF 0
REMARK  Name = ../refined-set-2016/4ayu/4ayu_pocket.pdb
REMARK  115 active torsions:
REMARK  status: ('A' for Active; 'I' for Inactive)
REMARK    1  A    between atoms: _1  and  _3
REMARK    2  A    between atoms: _3  and  _4
REMARK    3  A    between atoms: _7  and  _9
REMARK    4  A    between atoms: _9  and  _10
REMARK    5  A    between atoms: _9  and  _12
REMARK    6  A    between atoms: _12  and  _13
REMARK    7  A    between atoms: _18  and  _19
REMARK    8  A    between atoms: _21  and  _23
REMARK    9  A    between atoms: _23  and  _24
REMARK   10  A    between atoms: _23  and  _26
REMARK   11  A    between atoms: _26  and  _27
REMARK   12  A    between atoms: _29  and  _31
REMARK   13  A    between atoms: _31  and  _32
REMARK   14  A    between atoms: _31  and  _34
REMARK   15  A    between atoms: _34  and  _35
REMARK   16  A    between atoms: _37  and  _39
REMARK   17  A    between atoms: _39  and  _40
REMARK   18  A    between atoms: _39  and  _42
REMARK   19  A    between atoms: _42  and  _43
REMARK   20  A    between atoms: _48  and  _50
REMARK   21  A    between atoms: _50  and  _51
REMARK   22  A    between atoms: _50  and  _53
REMARK   23  A    between atoms: _53  and  _54
REMARK   24  A    between atoms: _57  and  _59
REMARK   25  A    between atoms: _59  and  _60
REMARK   26  A    between atoms: _59  and  _62
REMARK   27  A    between atoms: _62  and  _63
REMARK   28  A    between atoms: _68  and  _70
REMARK   29  A    between atoms: _70  and  _71
REMARK   30  A    between atoms: _70  and  _73
REMARK   31  A    between atoms: _73  and  _74
REMARK   32  A    between atoms: _74  and  _75
REMARK   33  A    between atoms: _78  and  _80
REMARK   34  A    between atoms: _80  and  _81
REMARK   35  A    between atoms: _80  and  _83
REMARK   36  A    between atoms: _83  and  _84
REMARK   37  A    between atoms: _87  and  _89
REMARK   38  A    between atoms: _89  and  _90
REMARK   39  A    between atoms: _89  and  _92
REMARK   40  A    between atoms: _95  and  _97
REMARK   41  A    between atoms: _97  and  _98
REMARK   42  A    between atoms: _97  and  _100
REMARK   43  A    between atoms: _100  and  _101
REMARK   44  A    between atoms: _106  and  _107
REMARK   45  A    between atoms: _109  and  _111
REMARK   46  A    between atoms: _111  and  _112
REMARK   47  A    between atoms: _111  and  _114
REMARK   48  A    between atoms: _114  and  _115
REMARK   49  A    between atoms: _115  and  _116
REMARK   50  A    between atoms: _116  and  _117
REMARK   51  A    between atoms: _117  and  _118
REMARK   52  A    between atoms: _122  and  _124
REMARK   53  A    between atoms: _124  and  _125
REMARK   54  A    between atoms: _124  and  _127
REMARK   55  A    between atoms: _127  and  _128
REMARK   56  A    between atoms: _128  and  _129
REMARK   57  A    between atoms: _132  and  _134
REMARK   58  A    between atoms: _134  and  _135
REMARK   59  A    between atoms: _134  and  _137
REMARK   60  A    between atoms: _137  and  _138
REMARK   61  A    between atoms: _140  and  _142
REMARK   62  A    between atoms: _142  and  _143
REMARK   63  A    between atoms: _142  and  _145
REMARK   64  A    between atoms: _145  and  _146
REMARK   65  A    between atoms: _151  and  _152
REMARK   66  A    between atoms: _154  and  _156
REMARK   67  A    between atoms: _156  and  _157
REMARK   68  A    between atoms: _156  and  _159
REMARK   69  A    between atoms: _159  and  _160
REMARK   70  A    between atoms: _160  and  _161
REMARK   71  A    between atoms: _161  and  _162
REMARK   72  A    between atoms: _171  and  _173
REMARK   73  A    between atoms: _173  and  _174
REMARK   74  A    between atoms: _173  and  _176
REMARK   75  A    between atoms: _176  and  _177
REMARK   76  A    between atoms: _177  and  _178
REMARK   77  A    between atoms: _178  and  _179
REMARK   78  A    between atoms: _179  and  _180
REMARK   79  A    between atoms: _184  and  _186
REMARK   80  A    between atoms: _186  and  _187
REMARK   81  A    between atoms: _186  and  _189
REMARK   82  A    between atoms: _189  and  _190
REMARK   83  A    between atoms: _190  and  _191
REMARK   84  A    between atoms: _191  and  _192
REMARK   85  A    between atoms: _192  and  CA_265
REMARK   86  A    between atoms: _194  and  _196
REMARK   87  A    between atoms: _196  and  _197
REMARK   88  A    between atoms: _196  and  _199
REMARK   89  A    between atoms: _199  and  _200
REMARK   90  A    between atoms: _200  and  _201
REMARK   91  A    between atoms: _208  and  _209
REMARK   92  A    between atoms: _215  and  _217
REMARK   93  A    between atoms: _217  and  _218
REMARK   94  A    between atoms: _217  and  _220
REMARK   95  A    between atoms: _220  and  _221
REMARK   96  A    between atoms: _223  and  _225
REMARK   97  A    between atoms: _225  and  _226
REMARK   98  A    between atoms: _225  and  _228
REMARK   99  A    between atoms: _228  and  _229
REMARK  100  A    between atoms: _229  and  _230
REMARK  101  A    between atoms: _230  and  _231
REMARK  102  A    between atoms: _231  and  _232
REMARK  103  A    between atoms: _236  and  _238
REMARK  104  A    between atoms: _238  and  _239
REMARK  105  A    between atoms: _238  and  _241
REMARK  106  A    between atoms: _241  and  _242
REMARK  107  A    between atoms: _245  and  _247
REMARK  108  A    between atoms: _247  and  _248
REMARK  109  A    between atoms: _247  and  _250
REMARK  110  A    between atoms: _250  and  _251
REMARK  111  A    between atoms: _253  and  _255
REMARK  112  A    between atoms: _255  and  _256
REMARK  113  A    between atoms: _255  and  _258
REMARK  114  A    between atoms: _258  and  _259
REMARK  115  A    between atoms: _259  and  _260
REMARK                            x       y       z     vdW  Elec       q    Type
REMARK                         _______ _______ _______ _____ _____    ______ ____
ROOT
ATOM      1  O   HOH     1     -93.321   8.315 -16.121  0.00  0.00    +0.000 OA
ENDROOT
TORSDOF 0
REMARK  Name = ../refined-set-2016/4ayu/4ayu_pocket.pdb
REMARK  115 active torsions:
REMARK  status: ('A' for Active; 'I' for Inactive)
REMARK    1  A    between atoms: _1  and  _3
REMARK    2  A    between atoms: _3  and  _4
REMARK    3  A    between atoms: _7  and  _9
REMARK    4  A    between atoms: _9  and  _10
REMARK    5  A    between atoms: _9  and  _12
REMARK    6  A    between atoms: _12  and  _13
REMARK    7  A    between atoms: _18  and  _19
REMARK    8  A    between atoms: _21  and  _23
REMARK    9  A    between atoms: _23  and  _24
REMARK   10  A    between atoms: _23  and  _26
REMARK   11  A    between atoms: _26  and  _27
REMARK   12  A    between atoms: _29  and  _31
REMARK   13  A    between atoms: _31  and  _32
REMARK   14  A    between atoms: _31  and  _34
REMARK   15  A    between atoms: _34  and  _35
REMARK   16  A    between atoms: _37  and  _39
REMARK   17  A    between atoms: _39  and  _40
REMARK   18  A    between atoms: _39  and  _42
REMARK   19  A    between atoms: _42  and  _43
REMARK   20  A    between atoms: _48  and  _50
REMARK   21  A    between atoms: _50  and  _51
REMARK   22  A    between atoms: _50  and  _53
REMARK   23  A    between atoms: _53  and  _54
REMARK   24  A    between atoms: _57  and  _59
REMARK   25  A    between atoms: _59  and  _60
REMARK   26  A    between atoms: _59  and  _62
REMARK   27  A    between atoms: _62  and  _63
REMARK   28  A    between atoms: _68  and  _70
REMARK   29  A    between atoms: _70  and  _71
REMARK   30  A    between atoms: _70  and  _73
REMARK   31  A    between atoms: _73  and  _74
REMARK   32  A    between atoms: _74  and  _75
REMARK   33  A    between atoms: _78  and  _80
REMARK   34  A    between atoms: _80  and  _81
REMARK   35  A    between atoms: _80  and  _83
REMARK   36  A    between atoms: _83  and  _84
REMARK   37  A    between atoms: _87  and  _89
REMARK   38  A    between atoms: _89  and  _90
REMARK   39  A    between atoms: _89  and  _92
REMARK   40  A    between atoms: _95  and  _97
REMARK   41  A    between atoms: _97  and  _98
REMARK   42  A    between atoms: _97  and  _100
REMARK   43  A    between atoms: _100  and  _101
REMARK   44  A    between atoms: _106  and  _107
REMARK   45  A    between atoms: _109  and  _111
REMARK   46  A    between atoms: _111  and  _112
REMARK   47  A    between atoms: _111  and  _114
REMARK   48  A    between atoms: _114  and  _115
REMARK   49  A    between atoms: _115  and  _116
REMARK   50  A    between atoms: _116  and  _117
REMARK   51  A    between atoms: _117  and  _118
REMARK   52  A    between atoms: _122  and  _124
REMARK   53  A    between atoms: _124  and  _125
REMARK   54  A    between atoms: _124  and  _127
REMARK   55  A    between atoms: _127  and  _128
REMARK   56  A    between atoms: _128  and  _129
REMARK   57  A    between atoms: _132  and  _134
REMARK   58  A    between atoms: _134  and  _135
REMARK   59  A    between atoms: _134  and  _137
REMARK   60  A    between atoms: _137  and  _138
REMARK   61  A    between atoms: _140  and  _142
REMARK   62  A    between atoms: _142  and  _143
REMARK   63  A    between atoms: _142  and  _145
REMARK   64  A    between atoms: _145  and  _146
REMARK   65  A    between atoms: _151  and  _152
REMARK   66  A    between atoms: _154  and  _156
REMARK   67  A    between atoms: _156  and  _157
REMARK   68  A    between atoms: _156  and  _159
REMARK   69  A    between atoms: _159  and  _160
REMARK   70  A    between atoms: _160  and  _161
REMARK   71  A    between atoms: _161  and  _162
REMARK   72  A    between atoms: _171  and  _173
REMARK   73  A    between atoms: _173  and  _174
REMARK   74  A    between atoms: _173  and  _176
REMARK   75  A    between atoms: _176  and  _177
REMARK   76  A    between atoms: _177  and  _178
REMARK   77  A    between atoms: _178  and  _179
REMARK   78  A    between atoms: _179  and  _180
REMARK   79  A    between atoms: _184  and  _186
REMARK   80  A    between atoms: _186  and  _187
REMARK   81  A    between atoms: _186  and  _189
REMARK   82  A    between atoms: _189  and  _190
REMARK   83  A    between atoms: _190  and  _191
REMARK   84  A    between atoms: _191  and  _192
REMARK   85  A    between atoms: _192  and  CA_265
REMARK   86  A    between atoms: _194  and  _196
REMARK   87  A    between atoms: _196  and  _197
REMARK   88  A    between atoms: _196  and  _199
REMARK   89  A    between atoms: _199  and  _200
REMARK   90  A    between atoms: _200  and  _201
REMARK   91  A    between atoms: _208  and  _209
REMARK   92  A    between atoms: _215  and  _217
REMARK   93  A    between atoms: _217  and  _218
REMARK   94  A    between atoms: _217  and  _220
REMARK   95  A    between atoms: _220  and  _221
REMARK   96  A    between atoms: _223  and  _225
REMARK   97  A    between atoms: _225  and  _226
REMARK   98  A    between atoms: _225  and  _228
REMARK   99  A    between atoms: _228  and  _229
REMARK  100  A    between atoms: _229  and  _230
REMARK  101  A    between atoms: _230  and  _231
REMARK  102  A    between atoms: _231  and  _232
REMARK  103  A    between atoms: _236  and  _238
REMARK  104  A    between atoms: _238  and  _239
REMARK  105  A    between atoms: _238  and  _241
REMARK  106  A    between atoms: _241  and  _242
REMARK  107  A    between atoms: _245  and  _247
REMARK  108  A    between atoms: _247  and  _248
REMARK  109  A    between atoms: _247  and  _250
REMARK  110  A    between atoms: _250  and  _251
REMARK  111  A    between atoms: _253  and  _255
REMARK  112  A    between atoms: _255  and  _256
REMARK  113  A    between atoms: _255  and  _258
REMARK  114  A    between atoms: _258  and  _259
REMARK  115  A    between atoms: _259  and  _260
REMARK                            x       y       z     vdW  Elec       q    Type
REMARK                         _______ _______ _______ _____ _____    ______ ____
ROOT
ATOM      1  O   HOH     1     -94.550   7.429 -11.637  0.00  0.00    +0.000 OA
ENDROOT
TORSDOF 0
REMARK  Name = ../refined-set-2016/4ayu/4ayu_pocket.pdb
REMARK  115 active torsions:
REMARK  status: ('A' for Active; 'I' for Inactive)
REMARK    1  A    between atoms: _1  and  _3
REMARK    2  A    between atoms: _3  and  _4
REMARK    3  A    between atoms: _7  and  _9
REMARK    4  A    between atoms: _9  and  _10
REMARK    5  A    between atoms: _9  and  _12
REMARK    6  A    between atoms: _12  and  _13
REMARK    7  A    between atoms: _18  and  _19
REMARK    8  A    between atoms: _21  and  _23
REMARK    9  A    between atoms: _23  and  _24
REMARK   10  A    between atoms: _23  and  _26
REMARK   11  A    between atoms: _26  and  _27
REMARK   12  A    between atoms: _29  and  _31
REMARK   13  A    between atoms: _31  and  _32
REMARK   14  A    between atoms: _31  and  _34
REMARK   15  A    between atoms: _34  and  _35
REMARK   16  A    between atoms: _37  and  _39
REMARK   17  A    between atoms: _39  and  _40
REMARK   18  A    between atoms: _39  and  _42
REMARK   19  A    between atoms: _42  and  _43
REMARK   20  A    between atoms: _48  and  _50
REMARK   21  A    between atoms: _50  and  _51
REMARK   22  A    between atoms: _50  and  _53
REMARK   23  A    between atoms: _53  and  _54
REMARK   24  A    between atoms: _57  and  _59
REMARK   25  A    between atoms: _59  and  _60
REMARK   26  A    between atoms: _59  and  _62
REMARK   27  A    between atoms: _62  and  _63
REMARK   28  A    between atoms: _68  and  _70
REMARK   29  A    between atoms: _70  and  _71
REMARK   30  A    between atoms: _70  and  _73
REMARK   31  A    between atoms: _73  and  _74
REMARK   32  A    between atoms: _74  and  _75
REMARK   33  A    between atoms: _78  and  _80
REMARK   34  A    between atoms: _80  and  _81
REMARK   35  A    between atoms: _80  and  _83
REMARK   36  A    between atoms: _83  and  _84
REMARK   37  A    between atoms: _87  and  _89
REMARK   38  A    between atoms: _89  and  _90
REMARK   39  A    between atoms: _89  and  _92
REMARK   40  A    between atoms: _95  and  _97
REMARK   41  A    between atoms: _97  and  _98
REMARK   42  A    between atoms: _97  and  _100
REMARK   43  A    between atoms: _100  and  _101
REMARK   44  A    between atoms: _106  and  _107
REMARK   45  A    between atoms: _109  and  _111
REMARK   46  A    between atoms: _111  and  _112
REMARK   47  A    between atoms: _111  and  _114
REMARK   48  A    between atoms: _114  and  _115
REMARK   49  A    between atoms: _115  and  _116
REMARK   50  A    between atoms: _116  and  _117
REMARK   51  A    between atoms: _117  and  _118
REMARK   52  A    between atoms: _122  and  _124
REMARK   53  A    between atoms: _124  and  _125
REMARK   54  A    between atoms: _124  and  _127
REMARK   55  A    between atoms: _127  and  _128
REMARK   56  A    between atoms: _128  and  _129
REMARK   57  A    between atoms: _132  and  _134
REMARK   58  A    between atoms: _134  and  _135
REMARK   59  A    between atoms: _134  and  _137
REMARK   60  A    between atoms: _137  and  _138
REMARK   61  A    between atoms: _140  and  _142
REMARK   62  A    between atoms: _142  and  _143
REMARK   63  A    between atoms: _142  and  _145
REMARK   64  A    between atoms: _145  and  _146
REMARK   65  A    between atoms: _151  and  _152
REMARK   66  A    between atoms: _154  and  _156
REMARK   67  A    between atoms: _156  and  _157
REMARK   68  A    between atoms: _156  and  _159
REMARK   69  A    between atoms: _159  and  _160
REMARK   70  A    between atoms: _160  and  _161
REMARK   71  A    between atoms: _161  and  _162
REMARK   72  A    between atoms: _171  and  _173
REMARK   73  A    between atoms: _173  and  _174
REMARK   74  A    between atoms: _173  and  _176
REMARK   75  A    between atoms: _176  and  _177
REMARK   76  A    between atoms: _177  and  _178
REMARK   77  A    between atoms: _178  and  _179
REMARK   78  A    between atoms: _179  and  _180
REMARK   79  A    between atoms: _184  and  _186
REMARK   80  A    between atoms: _186  and  _187
REMARK   81  A    between atoms: _186  and  _189
REMARK   82  A    between atoms: _189  and  _190
REMARK   83  A    between atoms: _190  and  _191
REMARK   84  A    between atoms: _191  and  _192
REMARK   85  A    between atoms: _192  and  CA_265
REMARK   86  A    between atoms: _194  and  _196
REMARK   87  A    between atoms: _196  and  _197
REMARK   88  A    between atoms: _196  and  _199
REMARK   89  A    between atoms: _199  and  _200
REMARK   90  A    between atoms: _200  and  _201
REMARK   91  A    between atoms: _208  and  _209
REMARK   92  A    between atoms: _215  and  _217
REMARK   93  A    between atoms: _217  and  _218
REMARK   94  A    between atoms: _217  and  _220
REMARK   95  A    between atoms: _220  and  _221
REMARK   96  A    between atoms: _223  and  _225
REMARK   97  A    between atoms: _225  and  _226
REMARK   98  A    between atoms: _225  and  _228
REMARK   99  A    between atoms: _228  and  _229
REMARK  100  A    between atoms: _229  and  _230
REMARK  101  A    between atoms: _230  and  _231
REMARK  102  A    between atoms: _231  and  _232
REMARK  103  A    between atoms: _236  and  _238
REMARK  104  A    between atoms: _238  and  _239
REMARK  105  A    between atoms: _238  and  _241
REMARK  106  A    between atoms: _241  and  _242
REMARK  107  A    between atoms: _245  and  _247
REMARK  108  A    between atoms: _247  and  _248
REMARK  109  A    between atoms: _247  and  _250
REMARK  110  A    between atoms: _250  and  _251
REMARK  111  A    between atoms: _253  and  _255
REMARK  112  A    between atoms: _255  and  _256
REMARK  113  A    between atoms: _255  and  _258
REMARK  114  A    between atoms: _258  and  _259
REMARK  115  A    between atoms: _259  and  _260
REMARK                            x       y       z     vdW  Elec       q    Type
REMARK                         _______ _______ _______ _____ _____    ______ ____
ROOT
ATOM      1  O   HOH     1     -88.127   6.501 -14.347  0.00  0.00    +0.000 OA
ENDROOT
TORSDOF 0
REMARK  Name = ../refined-set-2016/4ayu/4ayu_pocket.pdb
REMARK  115 active torsions:
REMARK  status: ('A' for Active; 'I' for Inactive)
REMARK    1  A    between atoms: _1  and  _3
REMARK    2  A    between atoms: _3  and  _4
REMARK    3  A    between atoms: _7  and  _9
REMARK    4  A    between atoms: _9  and  _10
REMARK    5  A    between atoms: _9  and  _12
REMARK    6  A    between atoms: _12  and  _13
REMARK    7  A    between atoms: _18  and  _19
REMARK    8  A    between atoms: _21  and  _23
REMARK    9  A    between atoms: _23  and  _24
REMARK   10  A    between atoms: _23  and  _26
REMARK   11  A    between atoms: _26  and  _27
REMARK   12  A    between atoms: _29  and  _31
REMARK   13  A    between atoms: _31  and  _32
REMARK   14  A    between atoms: _31  and  _34
REMARK   15  A    between atoms: _34  and  _35
REMARK   16  A    between atoms: _37  and  _39
REMARK   17  A    between atoms: _39  and  _40
REMARK   18  A    between atoms: _39  and  _42
REMARK   19  A    between atoms: _42  and  _43
REMARK   20  A    between atoms: _48  and  _50
REMARK   21  A    between atoms: _50  and  _51
REMARK   22  A    between atoms: _50  and  _53
REMARK   23  A    between atoms: _53  and  _54
REMARK   24  A    between atoms: _57  and  _59
REMARK   25  A    between atoms: _59  and  _60
REMARK   26  A    between atoms: _59  and  _62
REMARK   27  A    between atoms: _62  and  _63
REMARK   28  A    between atoms: _68  and  _70
REMARK   29  A    between atoms: _70  and  _71
REMARK   30  A    between atoms: _70  and  _73
REMARK   31  A    between atoms: _73  and  _74
REMARK   32  A    between atoms: _74  and  _75
REMARK   33  A    between atoms: _78  and  _80
REMARK   34  A    between atoms: _80  and  _81
REMARK   35  A    between atoms: _80  and  _83
REMARK   36  A    between atoms: _83  and  _84
REMARK   37  A    between atoms: _87  and  _89
REMARK   38  A    between atoms: _89  and  _90
REMARK   39  A    between atoms: _89  and  _92
REMARK   40  A    between atoms: _95  and  _97
REMARK   41  A    between atoms: _97  and  _98
REMARK   42  A    between atoms: _97  and  _100
REMARK   43  A    between atoms: _100  and  _101
REMARK   44  A    between atoms: _106  and  _107
REMARK   45  A    between atoms: _109  and  _111
REMARK   46  A    between atoms: _111  and  _112
REMARK   47  A    between atoms: _111  and  _114
REMARK   48  A    between atoms: _114  and  _115
REMARK   49  A    between atoms: _115  and  _116
REMARK   50  A    between atoms: _116  and  _117
REMARK   51  A    between atoms: _117  and  _118
REMARK   52  A    between atoms: _122  and  _124
REMARK   53  A    between atoms: _124  and  _125
REMARK   54  A    between atoms: _124  and  _127
REMARK   55  A    between atoms: _127  and  _128
REMARK   56  A    between atoms: _128  and  _129
REMARK   57  A    between atoms: _132  and  _134
REMARK   58  A    between atoms: _134  and  _135
REMARK   59  A    between atoms: _134  and  _137
REMARK   60  A    between atoms: _137  and  _138
REMARK   61  A    between atoms: _140  and  _142
REMARK   62  A    between atoms: _142  and  _143
REMARK   63  A    between atoms: _142  and  _145
REMARK   64  A    between atoms: _145  and  _146
REMARK   65  A    between atoms: _151  and  _152
REMARK   66  A    between atoms: _154  and  _156
REMARK   67  A    between atoms: _156  and  _157
REMARK   68  A    between atoms: _156  and  _159
REMARK   69  A    between atoms: _159  and  _160
REMARK   70  A    between atoms: _160  and  _161
REMARK   71  A    between atoms: _161  and  _162
REMARK   72  A    between atoms: _171  and  _173
REMARK   73  A    between atoms: _173  and  _174
REMARK   74  A    between atoms: _173  and  _176
REMARK   75  A    between atoms: _176  and  _177
REMARK   76  A    between atoms: _177  and  _178
REMARK   77  A    between atoms: _178  and  _179
REMARK   78  A    between atoms: _179  and  _180
REMARK   79  A    between atoms: _184  and  _186
REMARK   80  A    between atoms: _186  and  _187
REMARK   81  A    between atoms: _186  and  _189
REMARK   82  A    between atoms: _189  and  _190
REMARK   83  A    between atoms: _190  and  _191
REMARK   84  A    between atoms: _191  and  _192
REMARK   85  A    between atoms: _192  and  CA_265
REMARK   86  A    between atoms: _194  and  _196
REMARK   87  A    between atoms: _196  and  _197
REMARK   88  A    between atoms: _196  and  _199
REMARK   89  A    between atoms: _199  and  _200
REMARK   90  A    between atoms: _200  and  _201
REMARK   91  A    between atoms: _208  and  _209
REMARK   92  A    between atoms: _215  and  _217
REMARK   93  A    between atoms: _217  and  _218
REMARK   94  A    between atoms: _217  and  _220
REMARK   95  A    between atoms: _220  and  _221
REMARK   96  A    between atoms: _223  and  _225
REMARK   97  A    between atoms: _225  and  _226
REMARK   98  A    between atoms: _225  and  _228
REMARK   99  A    between atoms: _228  and  _229
REMARK  100  A    between atoms: _229  and  _230
REMARK  101  A    between atoms: _230  and  _231
REMARK  102  A    between atoms: _231  and  _232
REMARK  103  A    between atoms: _236  and  _238
REMARK  104  A    between atoms: _238  and  _239
REMARK  105  A    between atoms: _238  and  _241
REMARK  106  A    between atoms: _241  and  _242
REMARK  107  A    between atoms: _245  and  _247
REMARK  108  A    between atoms: _247  and  _248
REMARK  109  A    between atoms: _247  and  _250
REMARK  110  A    between atoms: _250  and  _251
REMARK  111  A    between atoms: _253  and  _255
REMARK  112  A    between atoms: _255  and  _256
REMARK  113  A    between atoms: _255  and  _258
REMARK  114  A    between atoms: _258  and  _259
REMARK  115  A    between atoms: _259  and  _260
REMARK                            x       y       z     vdW  Elec       q    Type
REMARK                         _______ _______ _______ _____ _____    ______ ____
ROOT
ATOM      1  O   HOH     1     -97.566   5.711 -28.497  0.00  0.00    +0.000 OA
ENDROOT
TORSDOF 0
REMARK  Name = ../refined-set-2016/4ayu/4ayu_pocket.pdb
REMARK  115 active torsions:
REMARK  status: ('A' for Active; 'I' for Inactive)
REMARK    1  A    between atoms: _1  and  _3
REMARK    2  A    between atoms: _3  and  _4
REMARK    3  A    between atoms: _7  and  _9
REMARK    4  A    between atoms: _9  and  _10
REMARK    5  A    between atoms: _9  and  _12
REMARK    6  A    between atoms: _12  and  _13
REMARK    7  A    between atoms: _18  and  _19
REMARK    8  A    between atoms: _21  and  _23
REMARK    9  A    between atoms: _23  and  _24
REMARK   10  A    between atoms: _23  and  _26
REMARK   11  A    between atoms: _26  and  _27
REMARK   12  A    between atoms: _29  and  _31
REMARK   13  A    between atoms: _31  and  _32
REMARK   14  A    between atoms: _31  and  _34
REMARK   15  A    between atoms: _34  and  _35
REMARK   16  A    between atoms: _37  and  _39
REMARK   17  A    between atoms: _39  and  _40
REMARK   18  A    between atoms: _39  and  _42
REMARK   19  A    between atoms: _42  and  _43
REMARK   20  A    between atoms: _48  and  _50
REMARK   21  A    between atoms: _50  and  _51
REMARK   22  A    between atoms: _50  and  _53
REMARK   23  A    between atoms: _53  and  _54
REMARK   24  A    between atoms: _57  and  _59
REMARK   25  A    between atoms: _59  and  _60
REMARK   26  A    between atoms: _59  and  _62
REMARK   27  A    between atoms: _62  and  _63
REMARK   28  A    between atoms: _68  and  _70
REMARK   29  A    between atoms: _70  and  _71
REMARK   30  A    between atoms: _70  and  _73
REMARK   31  A    between atoms: _73  and  _74
REMARK   32  A    between atoms: _74  and  _75
REMARK   33  A    between atoms: _78  and  _80
REMARK   34  A    between atoms: _80  and  _81
REMARK   35  A    between atoms: _80  and  _83
REMARK   36  A    between atoms: _83  and  _84
REMARK   37  A    between atoms: _87  and  _89
REMARK   38  A    between atoms: _89  and  _90
REMARK   39  A    between atoms: _89  and  _92
REMARK   40  A    between atoms: _95  and  _97
REMARK   41  A    between atoms: _97  and  _98
REMARK   42  A    between atoms: _97  and  _100
REMARK   43  A    between atoms: _100  and  _101
REMARK   44  A    between atoms: _106  and  _107
REMARK   45  A    between atoms: _109  and  _111
REMARK   46  A    between atoms: _111  and  _112
REMARK   47  A    between atoms: _111  and  _114
REMARK   48  A    between atoms: _114  and  _115
REMARK   49  A    between atoms: _115  and  _116
REMARK   50  A    between atoms: _116  and  _117
REMARK   51  A    between atoms: _117  and  _118
REMARK   52  A    between atoms: _122  and  _124
REMARK   53  A    between atoms: _124  and  _125
REMARK   54  A    between atoms: _124  and  _127
REMARK   55  A    between atoms: _127  and  _128
REMARK   56  A    between atoms: _128  and  _129
REMARK   57  A    between atoms: _132  and  _134
REMARK   58  A    between atoms: _134  and  _135
REMARK   59  A    between atoms: _134  and  _137
REMARK   60  A    between atoms: _137  and  _138
REMARK   61  A    between atoms: _140  and  _142
REMARK   62  A    between atoms: _142  and  _143
REMARK   63  A    between atoms: _142  and  _145
REMARK   64  A    between atoms: _145  and  _146
REMARK   65  A    between atoms: _151  and  _152
REMARK   66  A    between atoms: _154  and  _156
REMARK   67  A    between atoms: _156  and  _157
REMARK   68  A    between atoms: _156  and  _159
REMARK   69  A    between atoms: _159  and  _160
REMARK   70  A    between atoms: _160  and  _161
REMARK   71  A    between atoms: _161  and  _162
REMARK   72  A    between atoms: _171  and  _173
REMARK   73  A    between atoms: _173  and  _174
REMARK   74  A    between atoms: _173  and  _176
REMARK   75  A    between atoms: _176  and  _177
REMARK   76  A    between atoms: _177  and  _178
REMARK   77  A    between atoms: _178  and  _179
REMARK   78  A    between atoms: _179  and  _180
REMARK   79  A    between atoms: _184  and  _186
REMARK   80  A    between atoms: _186  and  _187
REMARK   81  A    between atoms: _186  and  _189
REMARK   82  A    between atoms: _189  and  _190
REMARK   83  A    between atoms: _190  and  _191
REMARK   84  A    between atoms: _191  and  _192
REMARK   85  A    between atoms: _192  and  CA_265
REMARK   86  A    between atoms: _194  and  _196
REMARK   87  A    between atoms: _196  and  _197
REMARK   88  A    between atoms: _196  and  _199
REMARK   89  A    between atoms: _199  and  _200
REMARK   90  A    between atoms: _200  and  _201
REMARK   91  A    between atoms: _208  and  _209
REMARK   92  A    between atoms: _215  and  _217
REMARK   93  A    between atoms: _217  and  _218
REMARK   94  A    between atoms: _217  and  _220
REMARK   95  A    between atoms: _220  and  _221
REMARK   96  A    between atoms: _223  and  _225
REMARK   97  A    between atoms: _225  and  _226
REMARK   98  A    between atoms: _225  and  _228
REMARK   99  A    between atoms: _228  and  _229
REMARK  100  A    between atoms: _229  and  _230
REMARK  101  A    between atoms: _230  and  _231
REMARK  102  A    between atoms: _231  and  _232
REMARK  103  A    between atoms: _236  and  _238
REMARK  104  A    between atoms: _238  and  _239
REMARK  105  A    between atoms: _238  and  _241
REMARK  106  A    between atoms: _241  and  _242
REMARK  107  A    between atoms: _245  and  _247
REMARK  108  A    between atoms: _247  and  _248
REMARK  109  A    between atoms: _247  and  _250
REMARK  110  A    between atoms: _250  and  _251
REMARK  111  A    between atoms: _253  and  _255
REMARK  112  A    between atoms: _255  and  _256
REMARK  113  A    between atoms: _255  and  _258
REMARK  114  A    between atoms: _258  and  _259
REMARK  115  A    between atoms: _259  and  _260
REMARK                            x       y       z     vdW  Elec       q    Type
REMARK                         _______ _______ _______ _____ _____    ______ ____
ROOT
ATOM      1  O   HOH     1     -98.858   8.589 -25.410  0.00  0.00    +0.000 OA
ENDROOT
TORSDOF 0
REMARK  Name = ../refined-set-2016/4ayu/4ayu_pocket.pdb
REMARK  115 active torsions:
REMARK  status: ('A' for Active; 'I' for Inactive)
REMARK    1  A    between atoms: _1  and  _3
REMARK    2  A    between atoms: _3  and  _4
REMARK    3  A    between atoms: _7  and  _9
REMARK    4  A    between atoms: _9  and  _10
REMARK    5  A    between atoms: _9  and  _12
REMARK    6  A    between atoms: _12  and  _13
REMARK    7  A    between atoms: _18  and  _19
REMARK    8  A    between atoms: _21  and  _23
REMARK    9  A    between atoms: _23  and  _24
REMARK   10  A    between atoms: _23  and  _26
REMARK   11  A    between atoms: _26  and  _27
REMARK   12  A    between atoms: _29  and  _31
REMARK   13  A    between atoms: _31  and  _32
REMARK   14  A    between atoms: _31  and  _34
REMARK   15  A    between atoms: _34  and  _35
REMARK   16  A    between atoms: _37  and  _39
REMARK   17  A    between atoms: _39  and  _40
REMARK   18  A    between atoms: _39  and  _42
REMARK   19  A    between atoms: _42  and  _43
REMARK   20  A    between atoms: _48  and  _50
REMARK   21  A    between atoms: _50  and  _51
REMARK   22  A    between atoms: _50  and  _53
REMARK   23  A    between atoms: _53  and  _54
REMARK   24  A    between atoms: _57  and  _59
REMARK   25  A    between atoms: _59  and  _60
REMARK   26  A    between atoms: _59  and  _62
REMARK   27  A    between atoms: _62  and  _63
REMARK   28  A    between atoms: _68  and  _70
REMARK   29  A    between atoms: _70  and  _71
REMARK   30  A    between atoms: _70  and  _73
REMARK   31  A    between atoms: _73  and  _74
REMARK   32  A    between atoms: _74  and  _75
REMARK   33  A    between atoms: _78  and  _80
REMARK   34  A    between atoms: _80  and  _81
REMARK   35  A    between atoms: _80  and  _83
REMARK   36  A    between atoms: _83  and  _84
REMARK   37  A    between atoms: _87  and  _89
REMARK   38  A    between atoms: _89  and  _90
REMARK   39  A    between atoms: _89  and  _92
REMARK   40  A    between atoms: _95  and  _97
REMARK   41  A    between atoms: _97  and  _98
REMARK   42  A    between atoms: _97  and  _100
REMARK   43  A    between atoms: _100  and  _101
REMARK   44  A    between atoms: _106  and  _107
REMARK   45  A    between atoms: _109  and  _111
REMARK   46  A    between atoms: _111  and  _112
REMARK   47  A    between atoms: _111  and  _114
REMARK   48  A    between atoms: _114  and  _115
REMARK   49  A    between atoms: _115  and  _116
REMARK   50  A    between atoms: _116  and  _117
REMARK   51  A    between atoms: _117  and  _118
REMARK   52  A    between atoms: _122  and  _124
REMARK   53  A    between atoms: _124  and  _125
REMARK   54  A    between atoms: _124  and  _127
REMARK   55  A    between atoms: _127  and  _128
REMARK   56  A    between atoms: _128  and  _129
REMARK   57  A    between atoms: _132  and  _134
REMARK   58  A    between atoms: _134  and  _135
REMARK   59  A    between atoms: _134  and  _137
REMARK   60  A    between atoms: _137  and  _138
REMARK   61  A    between atoms: _140  and  _142
REMARK   62  A    between atoms: _142  and  _143
REMARK   63  A    between atoms: _142  and  _145
REMARK   64  A    between atoms: _145  and  _146
REMARK   65  A    between atoms: _151  and  _152
REMARK   66  A    between atoms: _154  and  _156
REMARK   67  A    between atoms: _156  and  _157
REMARK   68  A    between atoms: _156  and  _159
REMARK   69  A    between atoms: _159  and  _160
REMARK   70  A    between atoms: _160  and  _161
REMARK   71  A    between atoms: _161  and  _162
REMARK   72  A    between atoms: _171  and  _173
REMARK   73  A    between atoms: _173  and  _174
REMARK   74  A    between atoms: _173  and  _176
REMARK   75  A    between atoms: _176  and  _177
REMARK   76  A    between atoms: _177  and  _178
REMARK   77  A    between atoms: _178  and  _179
REMARK   78  A    between atoms: _179  and  _180
REMARK   79  A    between atoms: _184  and  _186
REMARK   80  A    between atoms: _186  and  _187
REMARK   81  A    between atoms: _186  and  _189
REMARK   82  A    between atoms: _189  and  _190
REMARK   83  A    between atoms: _190  and  _191
REMARK   84  A    between atoms: _191  and  _192
REMARK   85  A    between atoms: _192  and  CA_265
REMARK   86  A    between atoms: _194  and  _196
REMARK   87  A    between atoms: _196  and  _197
REMARK   88  A    between atoms: _196  and  _199
REMARK   89  A    between atoms: _199  and  _200
REMARK   90  A    between atoms: _200  and  _201
REMARK   91  A    between atoms: _208  and  _209
REMARK   92  A    between atoms: _215  and  _217
REMARK   93  A    between atoms: _217  and  _218
REMARK   94  A    between atoms: _217  and  _220
REMARK   95  A    between atoms: _220  and  _221
REMARK   96  A    between atoms: _223  and  _225
REMARK   97  A    between atoms: _225  and  _226
REMARK   98  A    between atoms: _225  and  _228
REMARK   99  A    between atoms: _228  and  _229
REMARK  100  A    between atoms: _229  and  _230
REMARK  101  A    between atoms: _230  and  _231
REMARK  102  A    between atoms: _231  and  _232
REMARK  103  A    between atoms: _236  and  _238
REMARK  104  A    between atoms: _238  and  _239
REMARK  105  A    between atoms: _238  and  _241
REMARK  106  A    between atoms: _241  and  _242
REMARK  107  A    between atoms: _245  and  _247
REMARK  108  A    between atoms: _247  and  _248
REMARK  109  A    between atoms: _247  and  _250
REMARK  110  A    between atoms: _250  and  _251
REMARK  111  A    between atoms: _253  and  _255
REMARK  112  A    between atoms: _255  and  _256
REMARK  113  A    between atoms: _255  and  _258
REMARK  114  A    between atoms: _258  and  _259
REMARK  115  A    between atoms: _259  and  _260
REMARK                            x       y       z     vdW  Elec       q    Type
REMARK                         _______ _______ _______ _____ _____    ______ ____
ROOT
ATOM      1  O   HOH     1    -103.295  12.659 -20.566  0.00  0.00    +0.000 OA
ENDROOT
TORSDOF 0
REMARK  Name = ../refined-set-2016/4ayu/4ayu_pocket.pdb
REMARK  115 active torsions:
REMARK  status: ('A' for Active; 'I' for Inactive)
REMARK    1  A    between atoms: _1  and  _3
REMARK    2  A    between atoms: _3  and  _4
REMARK    3  A    between atoms: _7  and  _9
REMARK    4  A    between atoms: _9  and  _10
REMARK    5  A    between atoms: _9  and  _12
REMARK    6  A    between atoms: _12  and  _13
REMARK    7  A    between atoms: _18  and  _19
REMARK    8  A    between atoms: _21  and  _23
REMARK    9  A    between atoms: _23  and  _24
REMARK   10  A    between atoms: _23  and  _26
REMARK   11  A    between atoms: _26  and  _27
REMARK   12  A    between atoms: _29  and  _31
REMARK   13  A    between atoms: _31  and  _32
REMARK   14  A    between atoms: _31  and  _34
REMARK   15  A    between atoms: _34  and  _35
REMARK   16  A    between atoms: _37  and  _39
REMARK   17  A    between atoms: _39  and  _40
REMARK   18  A    between atoms: _39  and  _42
REMARK   19  A    between atoms: _42  and  _43
REMARK   20  A    between atoms: _48  and  _50
REMARK   21  A    between atoms: _50  and  _51
REMARK   22  A    between atoms: _50  and  _53
REMARK   23  A    between atoms: _53  and  _54
REMARK   24  A    between atoms: _57  and  _59
REMARK   25  A    between atoms: _59  and  _60
REMARK   26  A    between atoms: _59  and  _62
REMARK   27  A    between atoms: _62  and  _63
REMARK   28  A    between atoms: _68  and  _70
REMARK   29  A    between atoms: _70  and  _71
REMARK   30  A    between atoms: _70  and  _73
REMARK   31  A    between atoms: _73  and  _74
REMARK   32  A    between atoms: _74  and  _75
REMARK   33  A    between atoms: _78  and  _80
REMARK   34  A    between atoms: _80  and  _81
REMARK   35  A    between atoms: _80  and  _83
REMARK   36  A    between atoms: _83  and  _84
REMARK   37  A    between atoms: _87  and  _89
REMARK   38  A    between atoms: _89  and  _90
REMARK   39  A    between atoms: _89  and  _92
REMARK   40  A    between atoms: _95  and  _97
REMARK   41  A    between atoms: _97  and  _98
REMARK   42  A    between atoms: _97  and  _100
REMARK   43  A    between atoms: _100  and  _101
REMARK   44  A    between atoms: _106  and  _107
REMARK   45  A    between atoms: _109  and  _111
REMARK   46  A    between atoms: _111  and  _112
REMARK   47  A    between atoms: _111  and  _114
REMARK   48  A    between atoms: _114  and  _115
REMARK   49  A    between atoms: _115  and  _116
REMARK   50  A    between atoms: _116  and  _117
REMARK   51  A    between atoms: _117  and  _118
REMARK   52  A    between atoms: _122  and  _124
REMARK   53  A    between atoms: _124  and  _125
REMARK   54  A    between atoms: _124  and  _127
REMARK   55  A    between atoms: _127  and  _128
REMARK   56  A    between atoms: _128  and  _129
REMARK   57  A    between atoms: _132  and  _134
REMARK   58  A    between atoms: _134  and  _135
REMARK   59  A    between atoms: _134  and  _137
REMARK   60  A    between atoms: _137  and  _138
REMARK   61  A    between atoms: _140  and  _142
REMARK   62  A    between atoms: _142  and  _143
REMARK   63  A    between atoms: _142  and  _145
REMARK   64  A    between atoms: _145  and  _146
REMARK   65  A    between atoms: _151  and  _152
REMARK   66  A    between atoms: _154  and  _156
REMARK   67  A    between atoms: _156  and  _157
REMARK   68  A    between atoms: _156  and  _159
REMARK   69  A    between atoms: _159  and  _160
REMARK   70  A    between atoms: _160  and  _161
REMARK   71  A    between atoms: _161  and  _162
REMARK   72  A    between atoms: _171  and  _173
REMARK   73  A    between atoms: _173  and  _174
REMARK   74  A    between atoms: _173  and  _176
REMARK   75  A    between atoms: _176  and  _177
REMARK   76  A    between atoms: _177  and  _178
REMARK   77  A    between atoms: _178  and  _179
REMARK   78  A    between atoms: _179  and  _180
REMARK   79  A    between atoms: _184  and  _186
REMARK   80  A    between atoms: _186  and  _187
REMARK   81  A    between atoms: _186  and  _189
REMARK   82  A    between atoms: _189  and  _190
REMARK   83  A    between atoms: _190  and  _191
REMARK   84  A    between atoms: _191  and  _192
REMARK   85  A    between atoms: _192  and  CA_265
REMARK   86  A    between atoms: _194  and  _196
REMARK   87  A    between atoms: _196  and  _197
REMARK   88  A    between atoms: _196  and  _199
REMARK   89  A    between atoms: _199  and  _200
REMARK   90  A    between atoms: _200  and  _201
REMARK   91  A    between atoms: _208  and  _209
REMARK   92  A    between atoms: _215  and  _217
REMARK   93  A    between atoms: _217  and  _218
REMARK   94  A    between atoms: _217  and  _220
REMARK   95  A    between atoms: _220  and  _221
REMARK   96  A    between atoms: _223  and  _225
REMARK   97  A    between atoms: _225  and  _226
REMARK   98  A    between atoms: _225  and  _228
REMARK   99  A    between atoms: _228  and  _229
REMARK  100  A    between atoms: _229  and  _230
REMARK  101  A    between atoms: _230  and  _231
REMARK  102  A    between atoms: _231  and  _232
REMARK  103  A    between atoms: _236  and  _238
REMARK  104  A    between atoms: _238  and  _239
REMARK  105  A    between atoms: _238  and  _241
REMARK  106  A    between atoms: _241  and  _242
REMARK  107  A    between atoms: _245  and  _247
REMARK  108  A    between atoms: _247  and  _248
REMARK  109  A    between atoms: _247  and  _250
REMARK  110  A    between atoms: _250  and  _251
REMARK  111  A    between atoms: _253  and  _255
REMARK  112  A    between atoms: _255  and  _256
REMARK  113  A    between atoms: _255  and  _258
REMARK  114  A    between atoms: _258  and  _259
REMARK  115  A    between atoms: _259  and  _260
REMARK                            x       y       z     vdW  Elec       q    Type
REMARK                         _______ _______ _______ _____ _____    ______ ____
ROOT
ATOM      1  O   HOH     1     -97.068  11.077 -21.733  0.00  0.00    +0.000 OA
ENDROOT
TORSDOF 0
REMARK  Name = ../refined-set-2016/4ayu/4ayu_pocket.pdb
REMARK  115 active torsions:
REMARK  status: ('A' for Active; 'I' for Inactive)
REMARK    1  A    between atoms: _1  and  _3
REMARK    2  A    between atoms: _3  and  _4
REMARK    3  A    between atoms: _7  and  _9
REMARK    4  A    between atoms: _9  and  _10
REMARK    5  A    between atoms: _9  and  _12
REMARK    6  A    between atoms: _12  and  _13
REMARK    7  A    between atoms: _18  and  _19
REMARK    8  A    between atoms: _21  and  _23
REMARK    9  A    between atoms: _23  and  _24
REMARK   10  A    between atoms: _23  and  _26
REMARK   11  A    between atoms: _26  and  _27
REMARK   12  A    between atoms: _29  and  _31
REMARK   13  A    between atoms: _31  and  _32
REMARK   14  A    between atoms: _31  and  _34
REMARK   15  A    between atoms: _34  and  _35
REMARK   16  A    between atoms: _37  and  _39
REMARK   17  A    between atoms: _39  and  _40
REMARK   18  A    between atoms: _39  and  _42
REMARK   19  A    between atoms: _42  and  _43
REMARK   20  A    between atoms: _48  and  _50
REMARK   21  A    between atoms: _50  and  _51
REMARK   22  A    between atoms: _50  and  _53
REMARK   23  A    between atoms: _53  and  _54
REMARK   24  A    between atoms: _57  and  _59
REMARK   25  A    between atoms: _59  and  _60
REMARK   26  A    between atoms: _59  and  _62
REMARK   27  A    between atoms: _62  and  _63
REMARK   28  A    between atoms: _68  and  _70
REMARK   29  A    between atoms: _70  and  _71
REMARK   30  A    between atoms: _70  and  _73
REMARK   31  A    between atoms: _73  and  _74
REMARK   32  A    between atoms: _74  and  _75
REMARK   33  A    between atoms: _78  and  _80
REMARK   34  A    between atoms: _80  and  _81
REMARK   35  A    between atoms: _80  and  _83
REMARK   36  A    between atoms: _83  and  _84
REMARK   37  A    between atoms: _87  and  _89
REMARK   38  A    between atoms: _89  and  _90
REMARK   39  A    between atoms: _89  and  _92
REMARK   40  A    between atoms: _95  and  _97
REMARK   41  A    between atoms: _97  and  _98
REMARK   42  A    between atoms: _97  and  _100
REMARK   43  A    between atoms: _100  and  _101
REMARK   44  A    between atoms: _106  and  _107
REMARK   45  A    between atoms: _109  and  _111
REMARK   46  A    between atoms: _111  and  _112
REMARK   47  A    between atoms: _111  and  _114
REMARK   48  A    between atoms: _114  and  _115
REMARK   49  A    between atoms: _115  and  _116
REMARK   50  A    between atoms: _116  and  _117
REMARK   51  A    between atoms: _117  and  _118
REMARK   52  A    between atoms: _122  and  _124
REMARK   53  A    between atoms: _124  and  _125
REMARK   54  A    between atoms: _124  and  _127
REMARK   55  A    between atoms: _127  and  _128
REMARK   56  A    between atoms: _128  and  _129
REMARK   57  A    between atoms: _132  and  _134
REMARK   58  A    between atoms: _134  and  _135
REMARK   59  A    between atoms: _134  and  _137
REMARK   60  A    between atoms: _137  and  _138
REMARK   61  A    between atoms: _140  and  _142
REMARK   62  A    between atoms: _142  and  _143
REMARK   63  A    between atoms: _142  and  _145
REMARK   64  A    between atoms: _145  and  _146
REMARK   65  A    between atoms: _151  and  _152
REMARK   66  A    between atoms: _154  and  _156
REMARK   67  A    between atoms: _156  and  _157
REMARK   68  A    between atoms: _156  and  _159
REMARK   69  A    between atoms: _159  and  _160
REMARK   70  A    between atoms: _160  and  _161
REMARK   71  A    between atoms: _161  and  _162
REMARK   72  A    between atoms: _171  and  _173
REMARK   73  A    between atoms: _173  and  _174
REMARK   74  A    between atoms: _173  and  _176
REMARK   75  A    between atoms: _176  and  _177
REMARK   76  A    between atoms: _177  and  _178
REMARK   77  A    between atoms: _178  and  _179
REMARK   78  A    between atoms: _179  and  _180
REMARK   79  A    between atoms: _184  and  _186
REMARK   80  A    between atoms: _186  and  _187
REMARK   81  A    between atoms: _186  and  _189
REMARK   82  A    between atoms: _189  and  _190
REMARK   83  A    between atoms: _190  and  _191
REMARK   84  A    between atoms: _191  and  _192
REMARK   85  A    between atoms: _192  and  CA_265
REMARK   86  A    between atoms: _194  and  _196
REMARK   87  A    between atoms: _196  and  _197
REMARK   88  A    between atoms: _196  and  _199
REMARK   89  A    between atoms: _199  and  _200
REMARK   90  A    between atoms: _200  and  _201
REMARK   91  A    between atoms: _208  and  _209
REMARK   92  A    between atoms: _215  and  _217
REMARK   93  A    between atoms: _217  and  _218
REMARK   94  A    between atoms: _217  and  _220
REMARK   95  A    between atoms: _220  and  _221
REMARK   96  A    between atoms: _223  and  _225
REMARK   97  A    between atoms: _225  and  _226
REMARK   98  A    between atoms: _225  and  _228
REMARK   99  A    between atoms: _228  and  _229
REMARK  100  A    between atoms: _229  and  _230
REMARK  101  A    between atoms: _230  and  _231
REMARK  102  A    between atoms: _231  and  _232
REMARK  103  A    between atoms: _236  and  _238
REMARK  104  A    between atoms: _238  and  _239
REMARK  105  A    between atoms: _238  and  _241
REMARK  106  A    between atoms: _241  and  _242
REMARK  107  A    between atoms: _245  and  _247
REMARK  108  A    between atoms: _247  and  _248
REMARK  109  A    between atoms: _247  and  _250
REMARK  110  A    between atoms: _250  and  _251
REMARK  111  A    between atoms: _253  and  _255
REMARK  112  A    between atoms: _255  and  _256
REMARK  113  A    between atoms: _255  and  _258
REMARK  114  A    between atoms: _258  and  _259
REMARK  115  A    between atoms: _259  and  _260
REMARK                            x       y       z     vdW  Elec       q    Type
REMARK                         _______ _______ _______ _____ _____    ______ ____
ROOT
ATOM      1  O   HOH     1    -100.018  12.713 -25.365  0.00  0.00    +0.000 OA
ENDROOT
TORSDOF 0
REMARK  Name = ../refined-set-2016/4ayu/4ayu_pocket.pdb
REMARK  115 active torsions:
REMARK  status: ('A' for Active; 'I' for Inactive)
REMARK    1  A    between atoms: _1  and  _3
REMARK    2  A    between atoms: _3  and  _4
REMARK    3  A    between atoms: _7  and  _9
REMARK    4  A    between atoms: _9  and  _10
REMARK    5  A    between atoms: _9  and  _12
REMARK    6  A    between atoms: _12  and  _13
REMARK    7  A    between atoms: _18  and  _19
REMARK    8  A    between atoms: _21  and  _23
REMARK    9  A    between atoms: _23  and  _24
REMARK   10  A    between atoms: _23  and  _26
REMARK   11  A    between atoms: _26  and  _27
REMARK   12  A    between atoms: _29  and  _31
REMARK   13  A    between atoms: _31  and  _32
REMARK   14  A    between atoms: _31  and  _34
REMARK   15  A    between atoms: _34  and  _35
REMARK   16  A    between atoms: _37  and  _39
REMARK   17  A    between atoms: _39  and  _40
REMARK   18  A    between atoms: _39  and  _42
REMARK   19  A    between atoms: _42  and  _43
REMARK   20  A    between atoms: _48  and  _50
REMARK   21  A    between atoms: _50  and  _51
REMARK   22  A    between atoms: _50  and  _53
REMARK   23  A    between atoms: _53  and  _54
REMARK   24  A    between atoms: _57  and  _59
REMARK   25  A    between atoms: _59  and  _60
REMARK   26  A    between atoms: _59  and  _62
REMARK   27  A    between atoms: _62  and  _63
REMARK   28  A    between atoms: _68  and  _70
REMARK   29  A    between atoms: _70  and  _71
REMARK   30  A    between atoms: _70  and  _73
REMARK   31  A    between atoms: _73  and  _74
REMARK   32  A    between atoms: _74  and  _75
REMARK   33  A    between atoms: _78  and  _80
REMARK   34  A    between atoms: _80  and  _81
REMARK   35  A    between atoms: _80  and  _83
REMARK   36  A    between atoms: _83  and  _84
REMARK   37  A    between atoms: _87  and  _89
REMARK   38  A    between atoms: _89  and  _90
REMARK   39  A    between atoms: _89  and  _92
REMARK   40  A    between atoms: _95  and  _97
REMARK   41  A    between atoms: _97  and  _98
REMARK   42  A    between atoms: _97  and  _100
REMARK   43  A    between atoms: _100  and  _101
REMARK   44  A    between atoms: _106  and  _107
REMARK   45  A    between atoms: _109  and  _111
REMARK   46  A    between atoms: _111  and  _112
REMARK   47  A    between atoms: _111  and  _114
REMARK   48  A    between atoms: _114  and  _115
REMARK   49  A    between atoms: _115  and  _116
REMARK   50  A    between atoms: _116  and  _117
REMARK   51  A    between atoms: _117  and  _118
REMARK   52  A    between atoms: _122  and  _124
REMARK   53  A    between atoms: _124  and  _125
REMARK   54  A    between atoms: _124  and  _127
REMARK   55  A    between atoms: _127  and  _128
REMARK   56  A    between atoms: _128  and  _129
REMARK   57  A    between atoms: _132  and  _134
REMARK   58  A    between atoms: _134  and  _135
REMARK   59  A    between atoms: _134  and  _137
REMARK   60  A    between atoms: _137  and  _138
REMARK   61  A    between atoms: _140  and  _142
REMARK   62  A    between atoms: _142  and  _143
REMARK   63  A    between atoms: _142  and  _145
REMARK   64  A    between atoms: _145  and  _146
REMARK   65  A    between atoms: _151  and  _152
REMARK   66  A    between atoms: _154  and  _156
REMARK   67  A    between atoms: _156  and  _157
REMARK   68  A    between atoms: _156  and  _159
REMARK   69  A    between atoms: _159  and  _160
REMARK   70  A    between atoms: _160  and  _161
REMARK   71  A    between atoms: _161  and  _162
REMARK   72  A    between atoms: _171  and  _173
REMARK   73  A    between atoms: _173  and  _174
REMARK   74  A    between atoms: _173  and  _176
REMARK   75  A    between atoms: _176  and  _177
REMARK   76  A    between atoms: _177  and  _178
REMARK   77  A    between atoms: _178  and  _179
REMARK   78  A    between atoms: _179  and  _180
REMARK   79  A    between atoms: _184  and  _186
REMARK   80  A    between atoms: _186  and  _187
REMARK   81  A    between atoms: _186  and  _189
REMARK   82  A    between atoms: _189  and  _190
REMARK   83  A    between atoms: _190  and  _191
REMARK   84  A    between atoms: _191  and  _192
REMARK   85  A    between atoms: _192  and  CA_265
REMARK   86  A    between atoms: _194  and  _196
REMARK   87  A    between atoms: _196  and  _197
REMARK   88  A    between atoms: _196  and  _199
REMARK   89  A    between atoms: _199  and  _200
REMARK   90  A    between atoms: _200  and  _201
REMARK   91  A    between atoms: _208  and  _209
REMARK   92  A    between atoms: _215  and  _217
REMARK   93  A    between atoms: _217  and  _218
REMARK   94  A    between atoms: _217  and  _220
REMARK   95  A    between atoms: _220  and  _221
REMARK   96  A    between atoms: _223  and  _225
REMARK   97  A    between atoms: _225  and  _226
REMARK   98  A    between atoms: _225  and  _228
REMARK   99  A    between atoms: _228  and  _229
REMARK  100  A    between atoms: _229  and  _230
REMARK  101  A    between atoms: _230  and  _231
REMARK  102  A    between atoms: _231  and  _232
REMARK  103  A    between atoms: _236  and  _238
REMARK  104  A    between atoms: _238  and  _239
REMARK  105  A    between atoms: _238  and  _241
REMARK  106  A    between atoms: _241  and  _242
REMARK  107  A    between atoms: _245  and  _247
REMARK  108  A    between atoms: _247  and  _248
REMARK  109  A    between atoms: _247  and  _250
REMARK  110  A    between atoms: _250  and  _251
REMARK  111  A    between atoms: _253  and  _255
REMARK  112  A    between atoms: _255  and  _256
REMARK  113  A    between atoms: _255  and  _258
REMARK  114  A    between atoms: _258  and  _259
REMARK  115  A    between atoms: _259  and  _260
REMARK                            x       y       z     vdW  Elec       q    Type
REMARK                         _______ _______ _______ _____ _____    ______ ____
ROOT
ATOM      1  O   HOH     1     -92.939  12.673 -26.011  0.00  0.00    +0.000 OA
ENDROOT
TORSDOF 0
REMARK  Name = ../refined-set-2016/4ayu/4ayu_pocket.pdb
REMARK  115 active torsions:
REMARK  status: ('A' for Active; 'I' for Inactive)
REMARK    1  A    between atoms: _1  and  _3
REMARK    2  A    between atoms: _3  and  _4
REMARK    3  A    between atoms: _7  and  _9
REMARK    4  A    between atoms: _9  and  _10
REMARK    5  A    between atoms: _9  and  _12
REMARK    6  A    between atoms: _12  and  _13
REMARK    7  A    between atoms: _18  and  _19
REMARK    8  A    between atoms: _21  and  _23
REMARK    9  A    between atoms: _23  and  _24
REMARK   10  A    between atoms: _23  and  _26
REMARK   11  A    between atoms: _26  and  _27
REMARK   12  A    between atoms: _29  and  _31
REMARK   13  A    between atoms: _31  and  _32
REMARK   14  A    between atoms: _31  and  _34
REMARK   15  A    between atoms: _34  and  _35
REMARK   16  A    between atoms: _37  and  _39
REMARK   17  A    between atoms: _39  and  _40
REMARK   18  A    between atoms: _39  and  _42
REMARK   19  A    between atoms: _42  and  _43
REMARK   20  A    between atoms: _48  and  _50
REMARK   21  A    between atoms: _50  and  _51
REMARK   22  A    between atoms: _50  and  _53
REMARK   23  A    between atoms: _53  and  _54
REMARK   24  A    between atoms: _57  and  _59
REMARK   25  A    between atoms: _59  and  _60
REMARK   26  A    between atoms: _59  and  _62
REMARK   27  A    between atoms: _62  and  _63
REMARK   28  A    between atoms: _68  and  _70
REMARK   29  A    between atoms: _70  and  _71
REMARK   30  A    between atoms: _70  and  _73
REMARK   31  A    between atoms: _73  and  _74
REMARK   32  A    between atoms: _74  and  _75
REMARK   33  A    between atoms: _78  and  _80
REMARK   34  A    between atoms: _80  and  _81
REMARK   35  A    between atoms: _80  and  _83
REMARK   36  A    between atoms: _83  and  _84
REMARK   37  A    between atoms: _87  and  _89
REMARK   38  A    between atoms: _89  and  _90
REMARK   39  A    between atoms: _89  and  _92
REMARK   40  A    between atoms: _95  and  _97
REMARK   41  A    between atoms: _97  and  _98
REMARK   42  A    between atoms: _97  and  _100
REMARK   43  A    between atoms: _100  and  _101
REMARK   44  A    between atoms: _106  and  _107
REMARK   45  A    between atoms: _109  and  _111
REMARK   46  A    between atoms: _111  and  _112
REMARK   47  A    between atoms: _111  and  _114
REMARK   48  A    between atoms: _114  and  _115
REMARK   49  A    between atoms: _115  and  _116
REMARK   50  A    between atoms: _116  and  _117
REMARK   51  A    between atoms: _117  and  _118
REMARK   52  A    between atoms: _122  and  _124
REMARK   53  A    between atoms: _124  and  _125
REMARK   54  A    between atoms: _124  and  _127
REMARK   55  A    between atoms: _127  and  _128
REMARK   56  A    between atoms: _128  and  _129
REMARK   57  A    between atoms: _132  and  _134
REMARK   58  A    between atoms: _134  and  _135
REMARK   59  A    between atoms: _134  and  _137
REMARK   60  A    between atoms: _137  and  _138
REMARK   61  A    between atoms: _140  and  _142
REMARK   62  A    between atoms: _142  and  _143
REMARK   63  A    between atoms: _142  and  _145
REMARK   64  A    between atoms: _145  and  _146
REMARK   65  A    between atoms: _151  and  _152
REMARK   66  A    between atoms: _154  and  _156
REMARK   67  A    between atoms: _156  and  _157
REMARK   68  A    between atoms: _156  and  _159
REMARK   69  A    between atoms: _159  and  _160
REMARK   70  A    between atoms: _160  and  _161
REMARK   71  A    between atoms: _161  and  _162
REMARK   72  A    between atoms: _171  and  _173
REMARK   73  A    between atoms: _173  and  _174
REMARK   74  A    between atoms: _173  and  _176
REMARK   75  A    between atoms: _176  and  _177
REMARK   76  A    between atoms: _177  and  _178
REMARK   77  A    between atoms: _178  and  _179
REMARK   78  A    between atoms: _179  and  _180
REMARK   79  A    between atoms: _184  and  _186
REMARK   80  A    between atoms: _186  and  _187
REMARK   81  A    between atoms: _186  and  _189
REMARK   82  A    between atoms: _189  and  _190
REMARK   83  A    between atoms: _190  and  _191
REMARK   84  A    between atoms: _191  and  _192
REMARK   85  A    between atoms: _192  and  CA_265
REMARK   86  A    between atoms: _194  and  _196
REMARK   87  A    between atoms: _196  and  _197
REMARK   88  A    between atoms: _196  and  _199
REMARK   89  A    between atoms: _199  and  _200
REMARK   90  A    between atoms: _200  and  _201
REMARK   91  A    between atoms: _208  and  _209
REMARK   92  A    between atoms: _215  and  _217
REMARK   93  A    between atoms: _217  and  _218
REMARK   94  A    between atoms: _217  and  _220
REMARK   95  A    between atoms: _220  and  _221
REMARK   96  A    between atoms: _223  and  _225
REMARK   97  A    between atoms: _225  and  _226
REMARK   98  A    between atoms: _225  and  _228
REMARK   99  A    between atoms: _228  and  _229
REMARK  100  A    between atoms: _229  and  _230
REMARK  101  A    between atoms: _230  and  _231
REMARK  102  A    between atoms: _231  and  _232
REMARK  103  A    between atoms: _236  and  _238
REMARK  104  A    between atoms: _238  and  _239
REMARK  105  A    between atoms: _238  and  _241
REMARK  106  A    between atoms: _241  and  _242
REMARK  107  A    between atoms: _245  and  _247
REMARK  108  A    between atoms: _247  and  _248
REMARK  109  A    between atoms: _247  and  _250
REMARK  110  A    between atoms: _250  and  _251
REMARK  111  A    between atoms: _253  and  _255
REMARK  112  A    between atoms: _255  and  _256
REMARK  113  A    between atoms: _255  and  _258
REMARK  114  A    between atoms: _258  and  _259
REMARK  115  A    between atoms: _259  and  _260
REMARK                            x       y       z     vdW  Elec       q    Type
REMARK                         _______ _______ _______ _____ _____    ______ ____
ROOT
ATOM      1  O   HOH     1     -88.611   7.682 -26.628  0.00  0.00    +0.000 OA
ENDROOT
TORSDOF 0
REMARK  Name = ../refined-set-2016/4ayu/4ayu_pocket.pdb
REMARK  115 active torsions:
REMARK  status: ('A' for Active; 'I' for Inactive)
REMARK    1  A    between atoms: _1  and  _3
REMARK    2  A    between atoms: _3  and  _4
REMARK    3  A    between atoms: _7  and  _9
REMARK    4  A    between atoms: _9  and  _10
REMARK    5  A    between atoms: _9  and  _12
REMARK    6  A    between atoms: _12  and  _13
REMARK    7  A    between atoms: _18  and  _19
REMARK    8  A    between atoms: _21  and  _23
REMARK    9  A    between atoms: _23  and  _24
REMARK   10  A    between atoms: _23  and  _26
REMARK   11  A    between atoms: _26  and  _27
REMARK   12  A    between atoms: _29  and  _31
REMARK   13  A    between atoms: _31  and  _32
REMARK   14  A    between atoms: _31  and  _34
REMARK   15  A    between atoms: _34  and  _35
REMARK   16  A    between atoms: _37  and  _39
REMARK   17  A    between atoms: _39  and  _40
REMARK   18  A    between atoms: _39  and  _42
REMARK   19  A    between atoms: _42  and  _43
REMARK   20  A    between atoms: _48  and  _50
REMARK   21  A    between atoms: _50  and  _51
REMARK   22  A    between atoms: _50  and  _53
REMARK   23  A    between atoms: _53  and  _54
REMARK   24  A    between atoms: _57  and  _59
REMARK   25  A    between atoms: _59  and  _60
REMARK   26  A    between atoms: _59  and  _62
REMARK   27  A    between atoms: _62  and  _63
REMARK   28  A    between atoms: _68  and  _70
REMARK   29  A    between atoms: _70  and  _71
REMARK   30  A    between atoms: _70  and  _73
REMARK   31  A    between atoms: _73  and  _74
REMARK   32  A    between atoms: _74  and  _75
REMARK   33  A    between atoms: _78  and  _80
REMARK   34  A    between atoms: _80  and  _81
REMARK   35  A    between atoms: _80  and  _83
REMARK   36  A    between atoms: _83  and  _84
REMARK   37  A    between atoms: _87  and  _89
REMARK   38  A    between atoms: _89  and  _90
REMARK   39  A    between atoms: _89  and  _92
REMARK   40  A    between atoms: _95  and  _97
REMARK   41  A    between atoms: _97  and  _98
REMARK   42  A    between atoms: _97  and  _100
REMARK   43  A    between atoms: _100  and  _101
REMARK   44  A    between atoms: _106  and  _107
REMARK   45  A    between atoms: _109  and  _111
REMARK   46  A    between atoms: _111  and  _112
REMARK   47  A    between atoms: _111  and  _114
REMARK   48  A    between atoms: _114  and  _115
REMARK   49  A    between atoms: _115  and  _116
REMARK   50  A    between atoms: _116  and  _117
REMARK   51  A    between atoms: _117  and  _118
REMARK   52  A    between atoms: _122  and  _124
REMARK   53  A    between atoms: _124  and  _125
REMARK   54  A    between atoms: _124  and  _127
REMARK   55  A    between atoms: _127  and  _128
REMARK   56  A    between atoms: _128  and  _129
REMARK   57  A    between atoms: _132  and  _134
REMARK   58  A    between atoms: _134  and  _135
REMARK   59  A    between atoms: _134  and  _137
REMARK   60  A    between atoms: _137  and  _138
REMARK   61  A    between atoms: _140  and  _142
REMARK   62  A    between atoms: _142  and  _143
REMARK   63  A    between atoms: _142  and  _145
REMARK   64  A    between atoms: _145  and  _146
REMARK   65  A    between atoms: _151  and  _152
REMARK   66  A    between atoms: _154  and  _156
REMARK   67  A    between atoms: _156  and  _157
REMARK   68  A    between atoms: _156  and  _159
REMARK   69  A    between atoms: _159  and  _160
REMARK   70  A    between atoms: _160  and  _161
REMARK   71  A    between atoms: _161  and  _162
REMARK   72  A    between atoms: _171  and  _173
REMARK   73  A    between atoms: _173  and  _174
REMARK   74  A    between atoms: _173  and  _176
REMARK   75  A    between atoms: _176  and  _177
REMARK   76  A    between atoms: _177  and  _178
REMARK   77  A    between atoms: _178  and  _179
REMARK   78  A    between atoms: _179  and  _180
REMARK   79  A    between atoms: _184  and  _186
REMARK   80  A    between atoms: _186  and  _187
REMARK   81  A    between atoms: _186  and  _189
REMARK   82  A    between atoms: _189  and  _190
REMARK   83  A    between atoms: _190  and  _191
REMARK   84  A    between atoms: _191  and  _192
REMARK   85  A    between atoms: _192  and  CA_265
REMARK   86  A    between atoms: _194  and  _196
REMARK   87  A    between atoms: _196  and  _197
REMARK   88  A    between atoms: _196  and  _199
REMARK   89  A    between atoms: _199  and  _200
REMARK   90  A    between atoms: _200  and  _201
REMARK   91  A    between atoms: _208  and  _209
REMARK   92  A    between atoms: _215  and  _217
REMARK   93  A    between atoms: _217  and  _218
REMARK   94  A    between atoms: _217  and  _220
REMARK   95  A    between atoms: _220  and  _221
REMARK   96  A    between atoms: _223  and  _225
REMARK   97  A    between atoms: _225  and  _226
REMARK   98  A    between atoms: _225  and  _228
REMARK   99  A    between atoms: _228  and  _229
REMARK  100  A    between atoms: _229  and  _230
REMARK  101  A    between atoms: _230  and  _231
REMARK  102  A    between atoms: _231  and  _232
REMARK  103  A    between atoms: _236  and  _238
REMARK  104  A    between atoms: _238  and  _239
REMARK  105  A    between atoms: _238  and  _241
REMARK  106  A    between atoms: _241  and  _242
REMARK  107  A    between atoms: _245  and  _247
REMARK  108  A    between atoms: _247  and  _248
REMARK  109  A    between atoms: _247  and  _250
REMARK  110  A    between atoms: _250  and  _251
REMARK  111  A    between atoms: _253  and  _255
REMARK  112  A    between atoms: _255  and  _256
REMARK  113  A    between atoms: _255  and  _258
REMARK  114  A    between atoms: _258  and  _259
REMARK  115  A    between atoms: _259  and  _260
REMARK                            x       y       z     vdW  Elec       q    Type
REMARK                         _______ _______ _______ _____ _____    ______ ____
ROOT
ATOM      1  O   HOH     1     -90.414   9.495 -24.968  0.00  0.00    +0.000 OA
ENDROOT
TORSDOF 0
REMARK  Name = ../refined-set-2016/4ayu/4ayu_pocket.pdb
REMARK  115 active torsions:
REMARK  status: ('A' for Active; 'I' for Inactive)
REMARK    1  A    between atoms: _1  and  _3
REMARK    2  A    between atoms: _3  and  _4
REMARK    3  A    between atoms: _7  and  _9
REMARK    4  A    between atoms: _9  and  _10
REMARK    5  A    between atoms: _9  and  _12
REMARK    6  A    between atoms: _12  and  _13
REMARK    7  A    between atoms: _18  and  _19
REMARK    8  A    between atoms: _21  and  _23
REMARK    9  A    between atoms: _23  and  _24
REMARK   10  A    between atoms: _23  and  _26
REMARK   11  A    between atoms: _26  and  _27
REMARK   12  A    between atoms: _29  and  _31
REMARK   13  A    between atoms: _31  and  _32
REMARK   14  A    between atoms: _31  and  _34
REMARK   15  A    between atoms: _34  and  _35
REMARK   16  A    between atoms: _37  and  _39
REMARK   17  A    between atoms: _39  and  _40
REMARK   18  A    between atoms: _39  and  _42
REMARK   19  A    between atoms: _42  and  _43
REMARK   20  A    between atoms: _48  and  _50
REMARK   21  A    between atoms: _50  and  _51
REMARK   22  A    between atoms: _50  and  _53
REMARK   23  A    between atoms: _53  and  _54
REMARK   24  A    between atoms: _57  and  _59
REMARK   25  A    between atoms: _59  and  _60
REMARK   26  A    between atoms: _59  and  _62
REMARK   27  A    between atoms: _62  and  _63
REMARK   28  A    between atoms: _68  and  _70
REMARK   29  A    between atoms: _70  and  _71
REMARK   30  A    between atoms: _70  and  _73
REMARK   31  A    between atoms: _73  and  _74
REMARK   32  A    between atoms: _74  and  _75
REMARK   33  A    between atoms: _78  and  _80
REMARK   34  A    between atoms: _80  and  _81
REMARK   35  A    between atoms: _80  and  _83
REMARK   36  A    between atoms: _83  and  _84
REMARK   37  A    between atoms: _87  and  _89
REMARK   38  A    between atoms: _89  and  _90
REMARK   39  A    between atoms: _89  and  _92
REMARK   40  A    between atoms: _95  and  _97
REMARK   41  A    between atoms: _97  and  _98
REMARK   42  A    between atoms: _97  and  _100
REMARK   43  A    between atoms: _100  and  _101
REMARK   44  A    between atoms: _106  and  _107
REMARK   45  A    between atoms: _109  and  _111
REMARK   46  A    between atoms: _111  and  _112
REMARK   47  A    between atoms: _111  and  _114
REMARK   48  A    between atoms: _114  and  _115
REMARK   49  A    between atoms: _115  and  _116
REMARK   50  A    between atoms: _116  and  _117
REMARK   51  A    between atoms: _117  and  _118
REMARK   52  A    between atoms: _122  and  _124
REMARK   53  A    between atoms: _124  and  _125
REMARK   54  A    between atoms: _124  and  _127
REMARK   55  A    between atoms: _127  and  _128
REMARK   56  A    between atoms: _128  and  _129
REMARK   57  A    between atoms: _132  and  _134
REMARK   58  A    between atoms: _134  and  _135
REMARK   59  A    between atoms: _134  and  _137
REMARK   60  A    between atoms: _137  and  _138
REMARK   61  A    between atoms: _140  and  _142
REMARK   62  A    between atoms: _142  and  _143
REMARK   63  A    between atoms: _142  and  _145
REMARK   64  A    between atoms: _145  and  _146
REMARK   65  A    between atoms: _151  and  _152
REMARK   66  A    between atoms: _154  and  _156
REMARK   67  A    between atoms: _156  and  _157
REMARK   68  A    between atoms: _156  and  _159
REMARK   69  A    between atoms: _159  and  _160
REMARK   70  A    between atoms: _160  and  _161
REMARK   71  A    between atoms: _161  and  _162
REMARK   72  A    between atoms: _171  and  _173
REMARK   73  A    between atoms: _173  and  _174
REMARK   74  A    between atoms: _173  and  _176
REMARK   75  A    between atoms: _176  and  _177
REMARK   76  A    between atoms: _177  and  _178
REMARK   77  A    between atoms: _178  and  _179
REMARK   78  A    between atoms: _179  and  _180
REMARK   79  A    between atoms: _184  and  _186
REMARK   80  A    between atoms: _186  and  _187
REMARK   81  A    between atoms: _186  and  _189
REMARK   82  A    between atoms: _189  and  _190
REMARK   83  A    between atoms: _190  and  _191
REMARK   84  A    between atoms: _191  and  _192
REMARK   85  A    between atoms: _192  and  CA_265
REMARK   86  A    between atoms: _194  and  _196
REMARK   87  A    between atoms: _196  and  _197
REMARK   88  A    between atoms: _196  and  _199
REMARK   89  A    between atoms: _199  and  _200
REMARK   90  A    between atoms: _200  and  _201
REMARK   91  A    between atoms: _208  and  _209
REMARK   92  A    between atoms: _215  and  _217
REMARK   93  A    between atoms: _217  and  _218
REMARK   94  A    between atoms: _217  and  _220
REMARK   95  A    between atoms: _220  and  _221
REMARK   96  A    between atoms: _223  and  _225
REMARK   97  A    between atoms: _225  and  _226
REMARK   98  A    between atoms: _225  and  _228
REMARK   99  A    between atoms: _228  and  _229
REMARK  100  A    between atoms: _229  and  _230
REMARK  101  A    between atoms: _230  and  _231
REMARK  102  A    between atoms: _231  and  _232
REMARK  103  A    between atoms: _236  and  _238
REMARK  104  A    between atoms: _238  and  _239
REMARK  105  A    between atoms: _238  and  _241
REMARK  106  A    between atoms: _241  and  _242
REMARK  107  A    between atoms: _245  and  _247
REMARK  108  A    between atoms: _247  and  _248
REMARK  109  A    between atoms: _247  and  _250
REMARK  110  A    between atoms: _250  and  _251
REMARK  111  A    between atoms: _253  and  _255
REMARK  112  A    between atoms: _255  and  _256
REMARK  113  A    between atoms: _255  and  _258
REMARK  114  A    between atoms: _258  and  _259
REMARK  115  A    between atoms: _259  and  _260
REMARK                            x       y       z     vdW  Elec       q    Type
REMARK                         _______ _______ _______ _____ _____    ______ ____
ROOT
ATOM      1  O   HOH     1     -89.854   8.408 -19.667  0.00  0.00    +0.000 OA
ENDROOT
TORSDOF 0
