REMARK  Name = ../refined-set-2016/4pox/4pox_pocket.pdb
REMARK  228 active torsions:
REMARK  status: ('A' for Active; 'I' for Inactive)
REMARK    1  A    between atoms: _1  and  _3
REMARK    2  A    between atoms: _3  and  _4
REMARK    3  A    between atoms: _3  and  _6
REMARK    4  A    between atoms: _6  and  _7
REMARK    5  A    between atoms: _10  and  _12
REMARK    6  A    between atoms: _12  and  _13
REMARK    7  A    between atoms: _12  and  _15
REMARK    8  A    between atoms: _15  and  _16
REMARK    9  A    between atoms: _16  and  _17
REMARK   10  A    between atoms: _20  and  _22
REMARK   11  A    between atoms: _22  and  _23
REMARK   12  A    between atoms: _25  and  _27
REMARK   13  A    between atoms: _27  and  _28
REMARK   14  A    between atoms: _27  and  _30
REMARK   15  A    between atoms: _30  and  _31
REMARK   16  A    between atoms: _33  and  _35
REMARK   17  A    between atoms: _35  and  _36
REMARK   18  A    between atoms: _35  and  _38
REMARK   19  A    between atoms: _38  and  _39
REMARK   20  A    between atoms: _44  and  _45
REMARK   21  A    between atoms: _47  and  _49
REMARK   22  A    between atoms: _49  and  _50
REMARK   23  A    between atoms: _53  and  _55
REMARK   24  A    between atoms: _55  and  _56
REMARK   25  A    between atoms: _55  and  _58
REMARK   26  A    between atoms: _58  and  _59
REMARK   27  A    between atoms: _64  and  _65
REMARK   28  A    between atoms: _67  and  _69
REMARK   29  A    between atoms: _69  and  _70
REMARK   30  A    between atoms: _69  and  _72
REMARK   31  A    between atoms: _72  and  _73
REMARK   32  A    between atoms: _78  and  _80
REMARK   33  A    between atoms: _80  and  _81
REMARK   34  A    between atoms: _80  and  _83
REMARK   35  A    between atoms: _83  and  _84
REMARK   36  A    between atoms: _90  and  _92
REMARK   37  A    between atoms: _92  and  _93
REMARK   38  A    between atoms: _92  and  _95
REMARK   39  A    between atoms: _95  and  _96
REMARK   40  A    between atoms: _99  and  _101
REMARK   41  A    between atoms: _101  and  _102
REMARK   42  A    between atoms: _101  and  _104
REMARK   43  A    between atoms: _104  and  _105
REMARK   44  A    between atoms: _105  and  _106
REMARK   45  A    between atoms: _111  and  _113
REMARK   46  A    between atoms: _113  and  _114
REMARK   47  A    between atoms: _117  and  _119
REMARK   48  A    between atoms: _119  and  _120
REMARK   49  A    between atoms: _119  and  _122
REMARK   50  A    between atoms: _122  and  _123
REMARK   51  A    between atoms: _133  and  _135
REMARK   52  A    between atoms: _135  and  _136
REMARK   53  A    between atoms: _135  and  _138
REMARK   54  A    between atoms: _138  and  _139
REMARK   55  A    between atoms: _142  and  _144
REMARK   56  A    between atoms: _144  and  _145
REMARK   57  A    between atoms: _144  and  _147
REMARK   58  A    between atoms: _147  and  _148
REMARK   59  A    between atoms: _151  and  _153
REMARK   60  A    between atoms: _153  and  _154
REMARK   61  A    between atoms: _153  and  _156
REMARK   62  A    between atoms: _156  and  _157
REMARK   63  A    between atoms: _160  and  _162
REMARK   64  A    between atoms: _162  and  _163
REMARK   65  A    between atoms: _162  and  _165
REMARK   66  A    between atoms: _165  and  _166
REMARK   67  A    between atoms: _166  and  _167
REMARK   68  A    between atoms: _169  and  _171
REMARK   69  A    between atoms: _171  and  _172
REMARK   70  A    between atoms: _175  and  _177
REMARK   71  A    between atoms: _177  and  _178
REMARK   72  A    between atoms: _181  and  _183
REMARK   73  A    between atoms: _183  and  _184
REMARK   74  A    between atoms: _183  and  _186
REMARK   75  A    between atoms: _186  and  _187
REMARK   76  A    between atoms: _187  and  _188
REMARK   77  A    between atoms: _190  and  _192
REMARK   78  A    between atoms: _192  and  _193
REMARK   79  A    between atoms: _195  and  _197
REMARK   80  A    between atoms: _197  and  _198
REMARK   81  A    between atoms: _197  and  _200
REMARK   82  A    between atoms: _200  and  _201
REMARK   83  A    between atoms: _204  and  _206
REMARK   84  A    between atoms: _206  and  _207
REMARK   85  A    between atoms: _206  and  _209
REMARK   86  A    between atoms: _209  and  _210
REMARK   87  A    between atoms: _210  and  _211
REMARK   88  A    between atoms: _216  and  _218
REMARK   89  A    between atoms: _218  and  _219
REMARK   90  A    between atoms: _218  and  _221
REMARK   91  A    between atoms: _221  and  _222
REMARK   92  A    between atoms: _222  and  _223
REMARK   93  A    between atoms: _223  and  _224
REMARK   94  A    between atoms: _233  and  _235
REMARK   95  A    between atoms: _235  and  _236
REMARK   96  A    between atoms: _235  and  _238
REMARK   97  A    between atoms: _238  and  _239
REMARK   98  A    between atoms: _246  and  _247
REMARK   99  A    between atoms: _252  and  _254
REMARK  100  A    between atoms: _254  and  _255
REMARK  101  A    between atoms: _254  and  _257
REMARK  102  A    between atoms: _257  and  _258
REMARK  103  A    between atoms: _263  and  _264
REMARK  104  A    between atoms: _266  and  _268
REMARK  105  A    between atoms: _268  and  _269
REMARK  106  A    between atoms: _268  and  _271
REMARK  107  A    between atoms: _271  and  _272
REMARK  108  A    between atoms: _275  and  _277
REMARK  109  A    between atoms: _277  and  _278
REMARK  110  A    between atoms: _277  and  _280
REMARK  111  A    between atoms: _280  and  _281
REMARK  112  A    between atoms: _284  and  _286
REMARK  113  A    between atoms: _286  and  _287
REMARK  114  A    between atoms: _286  and  _289
REMARK  115  A    between atoms: _289  and  _290
REMARK  116  A    between atoms: _294  and  _295
REMARK  117  A    between atoms: _300  and  _302
REMARK  118  A    between atoms: _302  and  _303
REMARK  119  A    between atoms: _302  and  _305
REMARK  120  A    between atoms: _305  and  _306
REMARK  121  A    between atoms: _306  and  _307
REMARK  122  A    between atoms: _309  and  _311
REMARK  123  A    between atoms: _311  and  _312
REMARK  124  A    between atoms: _311  and  _314
REMARK  125  A    between atoms: _314  and  _315
REMARK  126  A    between atoms: _318  and  _320
REMARK  127  A    between atoms: _320  and  _321
REMARK  128  A    between atoms: _320  and  _323
REMARK  129  A    between atoms: _323  and  _324
REMARK  130  A    between atoms: _324  and  _325
REMARK  131  A    between atoms: _330  and  _332
REMARK  132  A    between atoms: _332  and  _333
REMARK  133  A    between atoms: _336  and  _338
REMARK  134  A    between atoms: _338  and  _339
REMARK  135  A    between atoms: _341  and  _343
REMARK  136  A    between atoms: _343  and  _344
REMARK  137  A    between atoms: _343  and  _346
REMARK  138  A    between atoms: _346  and  _347
REMARK  139  A    between atoms: _350  and  _352
REMARK  140  A    between atoms: _352  and  _353
REMARK  141  A    between atoms: _352  and  _355
REMARK  142  A    between atoms: _355  and  _356
REMARK  143  A    between atoms: _358  and  _360
REMARK  144  A    between atoms: _360  and  _361
REMARK  145  A    between atoms: _360  and  _363
REMARK  146  A    between atoms: _363  and  _364
REMARK  147  A    between atoms: _369  and  _371
REMARK  148  A    between atoms: _371  and  _372
REMARK  149  A    between atoms: _371  and  _374
REMARK  150  A    between atoms: _374  and  _375
REMARK  151  A    between atoms: _375  and  _376
REMARK  152  A    between atoms: _379  and  _381
REMARK  153  A    between atoms: _381  and  _382
REMARK  154  A    between atoms: _385  and  _387
REMARK  155  A    between atoms: _387  and  _388
REMARK  156  A    between atoms: _387  and  _390
REMARK  157  A    between atoms: _390  and  _391
REMARK  158  A    between atoms: _397  and  _399
REMARK  159  A    between atoms: _399  and  _400
REMARK  160  A    between atoms: _399  and  _402
REMARK  161  A    between atoms: _402  and  _403
REMARK  162  A    between atoms: _406  and  _408
REMARK  163  A    between atoms: _408  and  _409
REMARK  164  A    between atoms: _408  and  _411
REMARK  165  A    between atoms: _411  and  _412
REMARK  166  A    between atoms: _415  and  _417
REMARK  167  A    between atoms: _417  and  _418
REMARK  168  A    between atoms: _417  and  _420
REMARK  169  A    between atoms: _420  and  _421
REMARK  170  A    between atoms: _424  and  _426
REMARK  171  A    between atoms: _426  and  _427
REMARK  172  A    between atoms: _426  and  _429
REMARK  173  A    between atoms: _429  and  _430
REMARK  174  A    between atoms: _433  and  _435
REMARK  175  A    between atoms: _435  and  _436
REMARK  176  A    between atoms: _435  and  _438
REMARK  177  A    between atoms: _438  and  _439
REMARK  178  A    between atoms: _442  and  _444
REMARK  179  A    between atoms: _444  and  _445
REMARK  180  A    between atoms: _448  and  _450
REMARK  181  A    between atoms: _450  and  _451
REMARK  182  A    between atoms: _450  and  _453
REMARK  183  A    between atoms: _453  and  _454
REMARK  184  A    between atoms: _456  and  _458
REMARK  185  A    between atoms: _458  and  _459
REMARK  186  A    between atoms: _458  and  _461
REMARK  187  A    between atoms: _464  and  _466
REMARK  188  A    between atoms: _466  and  _467
REMARK  189  A    between atoms: _466  and  _469
REMARK  190  A    between atoms: _469  and  _470
REMARK  191  A    between atoms: _472  and  _474
REMARK  192  A    between atoms: _474  and  _475
REMARK  193  A    between atoms: _474  and  _477
REMARK  194  A    between atoms: _477  and  _478
REMARK  195  A    between atoms: _484  and  _486
REMARK  196  A    between atoms: _486  and  _487
REMARK  197  A    between atoms: _486  and  _489
REMARK  198  A    between atoms: _489  and  _490
REMARK  199  A    between atoms: _493  and  _495
REMARK  200  A    between atoms: _495  and  _496
REMARK  201  A    between atoms: _498  and  _500
REMARK  202  A    between atoms: _500  and  _501
REMARK  203  A    between atoms: _500  and  _503
REMARK  204  A    between atoms: _503  and  _504
REMARK  205  A    between atoms: _507  and  _509
REMARK  206  A    between atoms: _509  and  _510
REMARK  207  A    between atoms: _509  and  _512
REMARK  208  A    between atoms: _512  and  _513
REMARK  209  A    between atoms: _519  and  _521
REMARK  210  A    between atoms: _521  and  _522
REMARK  211  A    between atoms: _524  and  _526
REMARK  212  A    between atoms: _526  and  _527
REMARK  213  A    between atoms: _526  and  _529
REMARK  214  A    between atoms: _529  and  _530
REMARK  215  A    between atoms: _530  and  _531
REMARK  216  A    between atoms: _531  and  _532
REMARK  217  A    between atoms: _532  and  _533
REMARK  218  A    between atoms: _537  and  _539
REMARK  219  A    between atoms: _539  and  _540
REMARK  220  A    between atoms: _542  and  _544
REMARK  221  A    between atoms: _544  and  _545
REMARK  222  A    between atoms: _544  and  _547
REMARK  223  A    between atoms: _550  and  _552
REMARK  224  A    between atoms: _552  and  _553
REMARK  225  A    between atoms: _555  and  _557
REMARK  226  A    between atoms: _557  and  _558
REMARK  227  A    between atoms: _557  and  _560
REMARK  228  A    between atoms: _560  and  _561
REMARK                            x       y       z     vdW  Elec       q    Type
REMARK                         _______ _______ _______ _____ _____    ______ ____
ROOT
ATOM      1  C   GLY A   3      26.694  -9.212 -11.819  0.00  0.00    +0.243 C 
ATOM      2  N   SER A   4      25.859  -8.397 -11.146  0.00  0.00    -0.295 N 
ATOM      3  H   SER A   4      25.059  -8.831 -10.643  0.00  0.00    +0.150 HD
ATOM      4  O   GLY A   3      27.675  -8.797 -12.443  0.00  0.00    -0.273 OA
ENDROOT
BRANCH   2   5
ATOM      5  CA  SER A   4      26.003  -6.934 -11.075  0.00  0.00    +0.178 C 
BRANCH   5   6
ATOM      6  C   SER A   4      25.754  -6.408  -9.650  0.00  0.00    +0.243 C 
ATOM      7  N   TYR A   5      26.096  -7.213  -8.631  0.00  0.00    -0.297 N 
ATOM      8  H   TYR A   5      26.510  -8.143  -8.845  0.00  0.00    +0.150 HD
ATOM      9  O   SER A   4      25.269  -5.286  -9.476  0.00  0.00    -0.273 OA
BRANCH   7  10
ATOM     10  CA  TYR A   5      25.908  -6.831  -7.225  0.00  0.00    +0.153 C 
BRANCH  10  11
ATOM     11  C   TYR A   5      27.119  -7.246  -6.366  0.00  0.00    +0.241 C 
ATOM     12  O   TYR A   5      27.013  -8.168  -5.558  0.00  0.00    -0.273 OA
ATOM     13  N   ALA A   6      28.266  -6.549  -6.540  0.00  0.00    -0.298 N 
ATOM     14  H   ALA A   6      28.283  -5.796  -7.257  0.00  0.00    +0.150 HD
BRANCH  13  15
ATOM     15  CA  ALA A   6      29.483  -6.803  -5.769  0.00  0.00    +0.137 C 
ATOM     16  CB  ALA A   6      30.652  -6.002  -6.333  0.00  0.00    +0.030 C 
BRANCH  15  17
ATOM     17  C   ALA A   6      29.262  -6.448  -4.287  0.00  0.00    +0.227 C 
ATOM     18  O   ALA A   6      28.603  -5.447  -4.020  0.00  0.00    -0.286 OA
ENDBRANCH  15  17
ENDBRANCH  13  15
ENDBRANCH  10  11
BRANCH  10  19
ATOM     19  CB  TYR A   5      24.579  -7.396  -6.672  0.00  0.00    +0.055 C 
BRANCH  19  20
ATOM     20  CG  TYR A   5      23.941  -6.527  -5.614  0.00  0.00    -0.020 A 
ATOM     21  CD2 TYR A   5      24.002  -6.873  -4.266  0.00  0.00    -0.001 A 
ATOM     22  CE2 TYR A   5      23.402  -6.083  -3.286  0.00  0.00    +0.036 A 
ATOM     23  CZ  TYR A   5      22.733  -4.926  -3.651  0.00  0.00    +0.134 A 
ATOM     24  CE1 TYR A   5      22.655  -4.565  -4.986  0.00  0.00    +0.036 A 
ATOM     25  CD1 TYR A   5      23.247  -5.372  -5.958  0.00  0.00    -0.001 A 
BRANCH  23  26
ATOM     26  OH  TYR A   5      22.158  -4.119  -2.699  0.00  0.00    -0.506 OA
ATOM     27  HH  TYR A   5      21.477  -4.635  -2.198  0.00  0.00    +0.292 HD
ENDBRANCH  23  26
ENDBRANCH  19  20
ENDBRANCH  10  19
ENDBRANCH   7  10
ENDBRANCH   5   6
BRANCH   5  28
ATOM     28  CB  SER A   4      25.067  -6.245 -12.071  0.00  0.00    +0.166 C 
BRANCH  28  29
ATOM     29  OG  SER A   4      25.314  -6.669 -13.401  0.00  0.00    -0.380 OA
ATOM     30  H   SER A   4      24.692  -6.204 -14.015  0.00  0.00    +0.211 HD
ENDBRANCH  28  29
ENDBRANCH   5  28
ENDBRANCH   2   5
BRANCH   1  31
ATOM     31  CA  GLY A   3      26.405 -10.704 -11.779  0.00  0.00    +0.176 C 
BRANCH  31  33
ATOM     32  C   GLU A   2      24.039 -11.215 -12.158  0.00  0.00    +0.241 C 
ATOM     33  N   GLY A   3      25.061 -11.042 -11.325  0.00  0.00    -0.295 N 
ATOM     34  H   GLY A   3      24.894 -11.153 -10.304  0.00  0.00    +0.150 HD
ATOM     35  O   GLU A   2      24.129 -11.117 -13.381  0.00  0.00    -0.273 OA
BRANCH  32  36
ATOM     36  CA  GLU A   2      22.677 -11.550 -11.523  0.00  0.00    +0.149 C 
BRANCH  36  38
ATOM     37  C   THR A   1      22.624 -13.965 -11.194  0.00  0.00    +0.241 C 
ATOM     38  N   GLU A   2      22.718 -12.737 -10.678  0.00  0.00    -0.297 N 
ATOM     39  H   GLU A   2      22.823 -12.625  -9.649  0.00  0.00    +0.150 HD
ATOM     40  O   THR A   1      22.483 -14.178 -12.397  0.00  0.00    -0.274 OA
BRANCH  37  41
ATOM     41  CA  THR A   1      22.639 -15.142 -10.216  0.00  0.00    +0.172 C 
BRANCH  41  42
ATOM     42  N   THR A   1      22.088 -16.326 -10.851  0.00  0.00    -0.236 NA
ATOM     43  H   THR A   1      22.351 -16.516 -11.839  0.00  0.00    +0.142 HD
ENDBRANCH  41  42
BRANCH  41  44
ATOM     44  CB  THR A   1      23.953 -15.448  -9.494  0.00  0.00    +0.135 C 
ATOM     45  CG2 THR A   1      25.154 -15.523 -10.428  0.00  0.00    +0.034 C 
BRANCH  44  46
ATOM     46  OG1 THR A   1      24.123 -14.452  -8.490  0.00  0.00    -0.383 OA
ATOM     47  HG1 THR A   1      23.361 -14.488  -7.859  0.00  0.00    +0.210 HD
ENDBRANCH  44  46
ENDBRANCH  41  44
ENDBRANCH  37  41
ENDBRANCH  36  38
BRANCH  36  48
ATOM     48  CB  GLU A   2      22.073 -10.363 -10.754  0.00  0.00    +0.041 C 
BRANCH  48  49
ATOM     49  CG  GLU A   2      21.847  -9.111 -11.587  0.00  0.00    +0.116 C 
BRANCH  49  50
ATOM     50  CD  GLU A   2      22.071  -7.829 -10.811  0.00  0.00    +0.365 C 
ATOM     51  OE2 GLU A   2      22.886  -7.853  -9.863  0.00  0.00    -0.246 OA
ATOM     52  OE1 GLU A   2      21.448  -6.797 -11.153  0.00  0.00    -0.246 OA
ENDBRANCH  49  50
ENDBRANCH  48  49
ENDBRANCH  36  48
ENDBRANCH  32  36
ENDBRANCH  31  33
ENDBRANCH   1  31
TORSDOF 22
REMARK  Name = ../refined-set-2016/4pox/4pox_pocket.pdb
REMARK  228 active torsions:
REMARK  status: ('A' for Active; 'I' for Inactive)
REMARK    1  A    between atoms: _1  and  _3
REMARK    2  A    between atoms: _3  and  _4
REMARK    3  A    between atoms: _3  and  _6
REMARK    4  A    between atoms: _6  and  _7
REMARK    5  A    between atoms: _10  and  _12
REMARK    6  A    between atoms: _12  and  _13
REMARK    7  A    between atoms: _12  and  _15
REMARK    8  A    between atoms: _15  and  _16
REMARK    9  A    between atoms: _16  and  _17
REMARK   10  A    between atoms: _20  and  _22
REMARK   11  A    between atoms: _22  and  _23
REMARK   12  A    between atoms: _25  and  _27
REMARK   13  A    between atoms: _27  and  _28
REMARK   14  A    between atoms: _27  and  _30
REMARK   15  A    between atoms: _30  and  _31
REMARK   16  A    between atoms: _33  and  _35
REMARK   17  A    between atoms: _35  and  _36
REMARK   18  A    between atoms: _35  and  _38
REMARK   19  A    between atoms: _38  and  _39
REMARK   20  A    between atoms: _44  and  _45
REMARK   21  A    between atoms: _47  and  _49
REMARK   22  A    between atoms: _49  and  _50
REMARK   23  A    between atoms: _53  and  _55
REMARK   24  A    between atoms: _55  and  _56
REMARK   25  A    between atoms: _55  and  _58
REMARK   26  A    between atoms: _58  and  _59
REMARK   27  A    between atoms: _64  and  _65
REMARK   28  A    between atoms: _67  and  _69
REMARK   29  A    between atoms: _69  and  _70
REMARK   30  A    between atoms: _69  and  _72
REMARK   31  A    between atoms: _72  and  _73
REMARK   32  A    between atoms: _78  and  _80
REMARK   33  A    between atoms: _80  and  _81
REMARK   34  A    between atoms: _80  and  _83
REMARK   35  A    between atoms: _83  and  _84
REMARK   36  A    between atoms: _90  and  _92
REMARK   37  A    between atoms: _92  and  _93
REMARK   38  A    between atoms: _92  and  _95
REMARK   39  A    between atoms: _95  and  _96
REMARK   40  A    between atoms: _99  and  _101
REMARK   41  A    between atoms: _101  and  _102
REMARK   42  A    between atoms: _101  and  _104
REMARK   43  A    between atoms: _104  and  _105
REMARK   44  A    between atoms: _105  and  _106
REMARK   45  A    between atoms: _111  and  _113
REMARK   46  A    between atoms: _113  and  _114
REMARK   47  A    between atoms: _117  and  _119
REMARK   48  A    between atoms: _119  and  _120
REMARK   49  A    between atoms: _119  and  _122
REMARK   50  A    between atoms: _122  and  _123
REMARK   51  A    between atoms: _133  and  _135
REMARK   52  A    between atoms: _135  and  _136
REMARK   53  A    between atoms: _135  and  _138
REMARK   54  A    between atoms: _138  and  _139
REMARK   55  A    between atoms: _142  and  _144
REMARK   56  A    between atoms: _144  and  _145
REMARK   57  A    between atoms: _144  and  _147
REMARK   58  A    between atoms: _147  and  _148
REMARK   59  A    between atoms: _151  and  _153
REMARK   60  A    between atoms: _153  and  _154
REMARK   61  A    between atoms: _153  and  _156
REMARK   62  A    between atoms: _156  and  _157
REMARK   63  A    between atoms: _160  and  _162
REMARK   64  A    between atoms: _162  and  _163
REMARK   65  A    between atoms: _162  and  _165
REMARK   66  A    between atoms: _165  and  _166
REMARK   67  A    between atoms: _166  and  _167
REMARK   68  A    between atoms: _169  and  _171
REMARK   69  A    between atoms: _171  and  _172
REMARK   70  A    between atoms: _175  and  _177
REMARK   71  A    between atoms: _177  and  _178
REMARK   72  A    between atoms: _181  and  _183
REMARK   73  A    between atoms: _183  and  _184
REMARK   74  A    between atoms: _183  and  _186
REMARK   75  A    between atoms: _186  and  _187
REMARK   76  A    between atoms: _187  and  _188
REMARK   77  A    between atoms: _190  and  _192
REMARK   78  A    between atoms: _192  and  _193
REMARK   79  A    between atoms: _195  and  _197
REMARK   80  A    between atoms: _197  and  _198
REMARK   81  A    between atoms: _197  and  _200
REMARK   82  A    between atoms: _200  and  _201
REMARK   83  A    between atoms: _204  and  _206
REMARK   84  A    between atoms: _206  and  _207
REMARK   85  A    between atoms: _206  and  _209
REMARK   86  A    between atoms: _209  and  _210
REMARK   87  A    between atoms: _210  and  _211
REMARK   88  A    between atoms: _216  and  _218
REMARK   89  A    between atoms: _218  and  _219
REMARK   90  A    between atoms: _218  and  _221
REMARK   91  A    between atoms: _221  and  _222
REMARK   92  A    between atoms: _222  and  _223
REMARK   93  A    between atoms: _223  and  _224
REMARK   94  A    between atoms: _233  and  _235
REMARK   95  A    between atoms: _235  and  _236
REMARK   96  A    between atoms: _235  and  _238
REMARK   97  A    between atoms: _238  and  _239
REMARK   98  A    between atoms: _246  and  _247
REMARK   99  A    between atoms: _252  and  _254
REMARK  100  A    between atoms: _254  and  _255
REMARK  101  A    between atoms: _254  and  _257
REMARK  102  A    between atoms: _257  and  _258
REMARK  103  A    between atoms: _263  and  _264
REMARK  104  A    between atoms: _266  and  _268
REMARK  105  A    between atoms: _268  and  _269
REMARK  106  A    between atoms: _268  and  _271
REMARK  107  A    between atoms: _271  and  _272
REMARK  108  A    between atoms: _275  and  _277
REMARK  109  A    between atoms: _277  and  _278
REMARK  110  A    between atoms: _277  and  _280
REMARK  111  A    between atoms: _280  and  _281
REMARK  112  A    between atoms: _284  and  _286
REMARK  113  A    between atoms: _286  and  _287
REMARK  114  A    between atoms: _286  and  _289
REMARK  115  A    between atoms: _289  and  _290
REMARK  116  A    between atoms: _294  and  _295
REMARK  117  A    between atoms: _300  and  _302
REMARK  118  A    between atoms: _302  and  _303
REMARK  119  A    between atoms: _302  and  _305
REMARK  120  A    between atoms: _305  and  _306
REMARK  121  A    between atoms: _306  and  _307
REMARK  122  A    between atoms: _309  and  _311
REMARK  123  A    between atoms: _311  and  _312
REMARK  124  A    between atoms: _311  and  _314
REMARK  125  A    between atoms: _314  and  _315
REMARK  126  A    between atoms: _318  and  _320
REMARK  127  A    between atoms: _320  and  _321
REMARK  128  A    between atoms: _320  and  _323
REMARK  129  A    between atoms: _323  and  _324
REMARK  130  A    between atoms: _324  and  _325
REMARK  131  A    between atoms: _330  and  _332
REMARK  132  A    between atoms: _332  and  _333
REMARK  133  A    between atoms: _336  and  _338
REMARK  134  A    between atoms: _338  and  _339
REMARK  135  A    between atoms: _341  and  _343
REMARK  136  A    between atoms: _343  and  _344
REMARK  137  A    between atoms: _343  and  _346
REMARK  138  A    between atoms: _346  and  _347
REMARK  139  A    between atoms: _350  and  _352
REMARK  140  A    between atoms: _352  and  _353
REMARK  141  A    between atoms: _352  and  _355
REMARK  142  A    between atoms: _355  and  _356
REMARK  143  A    between atoms: _358  and  _360
REMARK  144  A    between atoms: _360  and  _361
REMARK  145  A    between atoms: _360  and  _363
REMARK  146  A    between atoms: _363  and  _364
REMARK  147  A    between atoms: _369  and  _371
REMARK  148  A    between atoms: _371  and  _372
REMARK  149  A    between atoms: _371  and  _374
REMARK  150  A    between atoms: _374  and  _375
REMARK  151  A    between atoms: _375  and  _376
REMARK  152  A    between atoms: _379  and  _381
REMARK  153  A    between atoms: _381  and  _382
REMARK  154  A    between atoms: _385  and  _387
REMARK  155  A    between atoms: _387  and  _388
REMARK  156  A    between atoms: _387  and  _390
REMARK  157  A    between atoms: _390  and  _391
REMARK  158  A    between atoms: _397  and  _399
REMARK  159  A    between atoms: _399  and  _400
REMARK  160  A    between atoms: _399  and  _402
REMARK  161  A    between atoms: _402  and  _403
REMARK  162  A    between atoms: _406  and  _408
REMARK  163  A    between atoms: _408  and  _409
REMARK  164  A    between atoms: _408  and  _411
REMARK  165  A    between atoms: _411  and  _412
REMARK  166  A    between atoms: _415  and  _417
REMARK  167  A    between atoms: _417  and  _418
REMARK  168  A    between atoms: _417  and  _420
REMARK  169  A    between atoms: _420  and  _421
REMARK  170  A    between atoms: _424  and  _426
REMARK  171  A    between atoms: _426  and  _427
REMARK  172  A    between atoms: _426  and  _429
REMARK  173  A    between atoms: _429  and  _430
REMARK  174  A    between atoms: _433  and  _435
REMARK  175  A    between atoms: _435  and  _436
REMARK  176  A    between atoms: _435  and  _438
REMARK  177  A    between atoms: _438  and  _439
REMARK  178  A    between atoms: _442  and  _444
REMARK  179  A    between atoms: _444  and  _445
REMARK  180  A    between atoms: _448  and  _450
REMARK  181  A    between atoms: _450  and  _451
REMARK  182  A    between atoms: _450  and  _453
REMARK  183  A    between atoms: _453  and  _454
REMARK  184  A    between atoms: _456  and  _458
REMARK  185  A    between atoms: _458  and  _459
REMARK  186  A    between atoms: _458  and  _461
REMARK  187  A    between atoms: _464  and  _466
REMARK  188  A    between atoms: _466  and  _467
REMARK  189  A    between atoms: _466  and  _469
REMARK  190  A    between atoms: _469  and  _470
REMARK  191  A    between atoms: _472  and  _474
REMARK  192  A    between atoms: _474  and  _475
REMARK  193  A    between atoms: _474  and  _477
REMARK  194  A    between atoms: _477  and  _478
REMARK  195  A    between atoms: _484  and  _486
REMARK  196  A    between atoms: _486  and  _487
REMARK  197  A    between atoms: _486  and  _489
REMARK  198  A    between atoms: _489  and  _490
REMARK  199  A    between atoms: _493  and  _495
REMARK  200  A    between atoms: _495  and  _496
REMARK  201  A    between atoms: _498  and  _500
REMARK  202  A    between atoms: _500  and  _501
REMARK  203  A    between atoms: _500  and  _503
REMARK  204  A    between atoms: _503  and  _504
REMARK  205  A    between atoms: _507  and  _509
REMARK  206  A    between atoms: _509  and  _510
REMARK  207  A    between atoms: _509  and  _512
REMARK  208  A    between atoms: _512  and  _513
REMARK  209  A    between atoms: _519  and  _521
REMARK  210  A    between atoms: _521  and  _522
REMARK  211  A    between atoms: _524  and  _526
REMARK  212  A    between atoms: _526  and  _527
REMARK  213  A    between atoms: _526  and  _529
REMARK  214  A    between atoms: _529  and  _530
REMARK  215  A    between atoms: _530  and  _531
REMARK  216  A    between atoms: _531  and  _532
REMARK  217  A    between atoms: _532  and  _533
REMARK  218  A    between atoms: _537  and  _539
REMARK  219  A    between atoms: _539  and  _540
REMARK  220  A    between atoms: _542  and  _544
REMARK  221  A    between atoms: _544  and  _545
REMARK  222  A    between atoms: _544  and  _547
REMARK  223  A    between atoms: _550  and  _552
REMARK  224  A    between atoms: _552  and  _553
REMARK  225  A    between atoms: _555  and  _557
REMARK  226  A    between atoms: _557  and  _558
REMARK  227  A    between atoms: _557  and  _560
REMARK  228  A    between atoms: _560  and  _561
REMARK                            x       y       z     vdW  Elec       q    Type
REMARK                         _______ _______ _______ _____ _____    ______ ____
ROOT
ATOM      1  CA  ASN A   2      27.605 -11.752  -7.269  0.00  0.00    +0.158 C 
ENDROOT
BRANCH   1   4
ATOM      2  C   TYR A   1      27.788 -11.775  -4.780  0.00  0.00    +0.239 C 
ATOM      3  O   TYR A   1      28.036 -12.975  -4.702  0.00  0.00    -0.274 OA
ATOM      4  N   ASN A   2      27.564 -11.137  -5.946  0.00  0.00    -0.297 N 
ATOM      5  H   ASN A   2      27.344 -10.122  -5.899  0.00  0.00    +0.150 HD
BRANCH   2   6
ATOM      6  CA  TYR A   1      27.628 -10.946  -3.515  0.00  0.00    +0.149 C 
BRANCH   6   7
ATOM      7  N   TYR A   1      28.482  -9.754  -3.547  0.00  0.00    -0.238 NA
ATOM      8  H   TYR A   1      28.033  -8.833  -3.723  0.00  0.00    +0.142 HD
ENDBRANCH   6   7
BRANCH   6   9
ATOM      9  CB  TYR A   1      26.148 -10.542  -3.420  0.00  0.00    +0.053 C 
BRANCH   9  10
ATOM     10  CG  TYR A   1      25.637 -10.198  -2.046  0.00  0.00    -0.020 A 
ATOM     11  CD2 TYR A   1      25.014 -11.158  -1.256  0.00  0.00    -0.001 A 
ATOM     12  CE2 TYR A   1      24.431 -10.825  -0.035  0.00  0.00    +0.036 A 
ATOM     13  CZ  TYR A   1      24.473  -9.517   0.411  0.00  0.00    +0.134 A 
ATOM     14  CE1 TYR A   1      25.067  -8.538  -0.367  0.00  0.00    +0.036 A 
ATOM     15  CD1 TYR A   1      25.632  -8.879  -1.594  0.00  0.00    -0.001 A 
BRANCH  13  16
ATOM     16  OH  TYR A   1      23.903  -9.197   1.615  0.00  0.00    -0.506 OA
ATOM     17  HH  TYR A   1      24.591  -8.807   2.211  0.00  0.00    +0.292 HD
ENDBRANCH  13  16
ENDBRANCH   9  10
ENDBRANCH   6   9
ENDBRANCH   2   6
ENDBRANCH   1   4
BRANCH   1  18
ATOM     18  C   ASN A   2      27.990 -10.718  -8.308  0.00  0.00    +0.241 C 
ATOM     19  O   ASN A   2      27.290  -9.716  -8.492  0.00  0.00    -0.273 OA
ATOM     20  N   PHE A   3      29.138 -10.936  -8.951  0.00  0.00    -0.298 N 
ATOM     21  H   PHE A   3      29.673 -11.799  -8.725  0.00  0.00    +0.150 HD
BRANCH  20  22
ATOM     22  CA  PHE A   3      29.683 -10.030  -9.954  0.00  0.00    +0.141 C 
BRANCH  22  23
ATOM     23  C   PHE A   3      30.645 -10.757 -10.883  0.00  0.00    +0.227 C 
ATOM     24  O   PHE A   3      30.799 -11.971 -10.773  0.00  0.00    -0.286 OA
ENDBRANCH  22  23
BRANCH  22  25
ATOM     25  CB  PHE A   3      30.299  -8.758  -9.313  0.00  0.00    +0.054 C 
BRANCH  25  26
ATOM     26  CG  PHE A   3      31.474  -8.931  -8.373  0.00  0.00    -0.020 A 
ATOM     27  CD2 PHE A   3      31.324  -9.591  -7.152  0.00  0.00    -0.004 A 
ATOM     28  CE2 PHE A   3      32.407  -9.743  -6.282  0.00  0.00    -0.000 A 
ATOM     29  CZ  PHE A   3      33.627  -9.180  -6.595  0.00  0.00    -0.000 A 
ATOM     30  CE1 PHE A   3      33.790  -8.503  -7.789  0.00  0.00    -0.000 A 
ATOM     31  CD1 PHE A   3      32.715  -8.380  -8.677  0.00  0.00    -0.004 A 
ENDBRANCH  25  26
ENDBRANCH  22  25
ENDBRANCH  20  22
ENDBRANCH   1  18
BRANCH   1  32
ATOM     32  CB  ASN A   2      26.267 -12.428  -7.618  0.00  0.00    +0.114 C 
BRANCH  32  33
ATOM     33  CG  ASN A   2      25.041 -11.554  -7.534  0.00  0.00    +0.222 C 
ATOM     34  ND2 ASN A   2      24.464 -11.437  -6.355  0.00  0.00    -0.329 N 
ATOM     35 HD21 ASN A   2      24.875 -11.912  -5.526  0.00  0.00    +0.145 HD
ATOM     36 HD22 ASN A   2      23.598 -10.870  -6.254  0.00  0.00    +0.145 HD
ATOM     37  OD1 ASN A   2      24.578 -11.004  -8.531  0.00  0.00    -0.275 OA
ENDBRANCH  32  33
ENDBRANCH   1  32
TORSDOF 13
REMARK  Name = ../refined-set-2016/4pox/4pox_pocket.pdb
REMARK  228 active torsions:
REMARK  status: ('A' for Active; 'I' for Inactive)
REMARK    1  A    between atoms: _1  and  _3
REMARK    2  A    between atoms: _3  and  _4
REMARK    3  A    between atoms: _3  and  _6
REMARK    4  A    between atoms: _6  and  _7
REMARK    5  A    between atoms: _10  and  _12
REMARK    6  A    between atoms: _12  and  _13
REMARK    7  A    between atoms: _12  and  _15
REMARK    8  A    between atoms: _15  and  _16
REMARK    9  A    between atoms: _16  and  _17
REMARK   10  A    between atoms: _20  and  _22
REMARK   11  A    between atoms: _22  and  _23
REMARK   12  A    between atoms: _25  and  _27
REMARK   13  A    between atoms: _27  and  _28
REMARK   14  A    between atoms: _27  and  _30
REMARK   15  A    between atoms: _30  and  _31
REMARK   16  A    between atoms: _33  and  _35
REMARK   17  A    between atoms: _35  and  _36
REMARK   18  A    between atoms: _35  and  _38
REMARK   19  A    between atoms: _38  and  _39
REMARK   20  A    between atoms: _44  and  _45
REMARK   21  A    between atoms: _47  and  _49
REMARK   22  A    between atoms: _49  and  _50
REMARK   23  A    between atoms: _53  and  _55
REMARK   24  A    between atoms: _55  and  _56
REMARK   25  A    between atoms: _55  and  _58
REMARK   26  A    between atoms: _58  and  _59
REMARK   27  A    between atoms: _64  and  _65
REMARK   28  A    between atoms: _67  and  _69
REMARK   29  A    between atoms: _69  and  _70
REMARK   30  A    between atoms: _69  and  _72
REMARK   31  A    between atoms: _72  and  _73
REMARK   32  A    between atoms: _78  and  _80
REMARK   33  A    between atoms: _80  and  _81
REMARK   34  A    between atoms: _80  and  _83
REMARK   35  A    between atoms: _83  and  _84
REMARK   36  A    between atoms: _90  and  _92
REMARK   37  A    between atoms: _92  and  _93
REMARK   38  A    between atoms: _92  and  _95
REMARK   39  A    between atoms: _95  and  _96
REMARK   40  A    between atoms: _99  and  _101
REMARK   41  A    between atoms: _101  and  _102
REMARK   42  A    between atoms: _101  and  _104
REMARK   43  A    between atoms: _104  and  _105
REMARK   44  A    between atoms: _105  and  _106
REMARK   45  A    between atoms: _111  and  _113
REMARK   46  A    between atoms: _113  and  _114
REMARK   47  A    between atoms: _117  and  _119
REMARK   48  A    between atoms: _119  and  _120
REMARK   49  A    between atoms: _119  and  _122
REMARK   50  A    between atoms: _122  and  _123
REMARK   51  A    between atoms: _133  and  _135
REMARK   52  A    between atoms: _135  and  _136
REMARK   53  A    between atoms: _135  and  _138
REMARK   54  A    between atoms: _138  and  _139
REMARK   55  A    between atoms: _142  and  _144
REMARK   56  A    between atoms: _144  and  _145
REMARK   57  A    between atoms: _144  and  _147
REMARK   58  A    between atoms: _147  and  _148
REMARK   59  A    between atoms: _151  and  _153
REMARK   60  A    between atoms: _153  and  _154
REMARK   61  A    between atoms: _153  and  _156
REMARK   62  A    between atoms: _156  and  _157
REMARK   63  A    between atoms: _160  and  _162
REMARK   64  A    between atoms: _162  and  _163
REMARK   65  A    between atoms: _162  and  _165
REMARK   66  A    between atoms: _165  and  _166
REMARK   67  A    between atoms: _166  and  _167
REMARK   68  A    between atoms: _169  and  _171
REMARK   69  A    between atoms: _171  and  _172
REMARK   70  A    between atoms: _175  and  _177
REMARK   71  A    between atoms: _177  and  _178
REMARK   72  A    between atoms: _181  and  _183
REMARK   73  A    between atoms: _183  and  _184
REMARK   74  A    between atoms: _183  and  _186
REMARK   75  A    between atoms: _186  and  _187
REMARK   76  A    between atoms: _187  and  _188
REMARK   77  A    between atoms: _190  and  _192
REMARK   78  A    between atoms: _192  and  _193
REMARK   79  A    between atoms: _195  and  _197
REMARK   80  A    between atoms: _197  and  _198
REMARK   81  A    between atoms: _197  and  _200
REMARK   82  A    between atoms: _200  and  _201
REMARK   83  A    between atoms: _204  and  _206
REMARK   84  A    between atoms: _206  and  _207
REMARK   85  A    between atoms: _206  and  _209
REMARK   86  A    between atoms: _209  and  _210
REMARK   87  A    between atoms: _210  and  _211
REMARK   88  A    between atoms: _216  and  _218
REMARK   89  A    between atoms: _218  and  _219
REMARK   90  A    between atoms: _218  and  _221
REMARK   91  A    between atoms: _221  and  _222
REMARK   92  A    between atoms: _222  and  _223
REMARK   93  A    between atoms: _223  and  _224
REMARK   94  A    between atoms: _233  and  _235
REMARK   95  A    between atoms: _235  and  _236
REMARK   96  A    between atoms: _235  and  _238
REMARK   97  A    between atoms: _238  and  _239
REMARK   98  A    between atoms: _246  and  _247
REMARK   99  A    between atoms: _252  and  _254
REMARK  100  A    between atoms: _254  and  _255
REMARK  101  A    between atoms: _254  and  _257
REMARK  102  A    between atoms: _257  and  _258
REMARK  103  A    between atoms: _263  and  _264
REMARK  104  A    between atoms: _266  and  _268
REMARK  105  A    between atoms: _268  and  _269
REMARK  106  A    between atoms: _268  and  _271
REMARK  107  A    between atoms: _271  and  _272
REMARK  108  A    between atoms: _275  and  _277
REMARK  109  A    between atoms: _277  and  _278
REMARK  110  A    between atoms: _277  and  _280
REMARK  111  A    between atoms: _280  and  _281
REMARK  112  A    between atoms: _284  and  _286
REMARK  113  A    between atoms: _286  and  _287
REMARK  114  A    between atoms: _286  and  _289
REMARK  115  A    between atoms: _289  and  _290
REMARK  116  A    between atoms: _294  and  _295
REMARK  117  A    between atoms: _300  and  _302
REMARK  118  A    between atoms: _302  and  _303
REMARK  119  A    between atoms: _302  and  _305
REMARK  120  A    between atoms: _305  and  _306
REMARK  121  A    between atoms: _306  and  _307
REMARK  122  A    between atoms: _309  and  _311
REMARK  123  A    between atoms: _311  and  _312
REMARK  124  A    between atoms: _311  and  _314
REMARK  125  A    between atoms: _314  and  _315
REMARK  126  A    between atoms: _318  and  _320
REMARK  127  A    between atoms: _320  and  _321
REMARK  128  A    between atoms: _320  and  _323
REMARK  129  A    between atoms: _323  and  _324
REMARK  130  A    between atoms: _324  and  _325
REMARK  131  A    between atoms: _330  and  _332
REMARK  132  A    between atoms: _332  and  _333
REMARK  133  A    between atoms: _336  and  _338
REMARK  134  A    between atoms: _338  and  _339
REMARK  135  A    between atoms: _341  and  _343
REMARK  136  A    between atoms: _343  and  _344
REMARK  137  A    between atoms: _343  and  _346
REMARK  138  A    between atoms: _346  and  _347
REMARK  139  A    between atoms: _350  and  _352
REMARK  140  A    between atoms: _352  and  _353
REMARK  141  A    between atoms: _352  and  _355
REMARK  142  A    between atoms: _355  and  _356
REMARK  143  A    between atoms: _358  and  _360
REMARK  144  A    between atoms: _360  and  _361
REMARK  145  A    between atoms: _360  and  _363
REMARK  146  A    between atoms: _363  and  _364
REMARK  147  A    between atoms: _369  and  _371
REMARK  148  A    between atoms: _371  and  _372
REMARK  149  A    between atoms: _371  and  _374
REMARK  150  A    between atoms: _374  and  _375
REMARK  151  A    between atoms: _375  and  _376
REMARK  152  A    between atoms: _379  and  _381
REMARK  153  A    between atoms: _381  and  _382
REMARK  154  A    between atoms: _385  and  _387
REMARK  155  A    between atoms: _387  and  _388
REMARK  156  A    between atoms: _387  and  _390
REMARK  157  A    between atoms: _390  and  _391
REMARK  158  A    between atoms: _397  and  _399
REMARK  159  A    between atoms: _399  and  _400
REMARK  160  A    between atoms: _399  and  _402
REMARK  161  A    between atoms: _402  and  _403
REMARK  162  A    between atoms: _406  and  _408
REMARK  163  A    between atoms: _408  and  _409
REMARK  164  A    between atoms: _408  and  _411
REMARK  165  A    between atoms: _411  and  _412
REMARK  166  A    between atoms: _415  and  _417
REMARK  167  A    between atoms: _417  and  _418
REMARK  168  A    between atoms: _417  and  _420
REMARK  169  A    between atoms: _420  and  _421
REMARK  170  A    between atoms: _424  and  _426
REMARK  171  A    between atoms: _426  and  _427
REMARK  172  A    between atoms: _426  and  _429
REMARK  173  A    between atoms: _429  and  _430
REMARK  174  A    between atoms: _433  and  _435
REMARK  175  A    between atoms: _435  and  _436
REMARK  176  A    between atoms: _435  and  _438
REMARK  177  A    between atoms: _438  and  _439
REMARK  178  A    between atoms: _442  and  _444
REMARK  179  A    between atoms: _444  and  _445
REMARK  180  A    between atoms: _448  and  _450
REMARK  181  A    between atoms: _450  and  _451
REMARK  182  A    between atoms: _450  and  _453
REMARK  183  A    between atoms: _453  and  _454
REMARK  184  A    between atoms: _456  and  _458
REMARK  185  A    between atoms: _458  and  _459
REMARK  186  A    between atoms: _458  and  _461
REMARK  187  A    between atoms: _464  and  _466
REMARK  188  A    between atoms: _466  and  _467
REMARK  189  A    between atoms: _466  and  _469
REMARK  190  A    between atoms: _469  and  _470
REMARK  191  A    between atoms: _472  and  _474
REMARK  192  A    between atoms: _474  and  _475
REMARK  193  A    between atoms: _474  and  _477
REMARK  194  A    between atoms: _477  and  _478
REMARK  195  A    between atoms: _484  and  _486
REMARK  196  A    between atoms: _486  and  _487
REMARK  197  A    between atoms: _486  and  _489
REMARK  198  A    between atoms: _489  and  _490
REMARK  199  A    between atoms: _493  and  _495
REMARK  200  A    between atoms: _495  and  _496
REMARK  201  A    between atoms: _498  and  _500
REMARK  202  A    between atoms: _500  and  _501
REMARK  203  A    between atoms: _500  and  _503
REMARK  204  A    between atoms: _503  and  _504
REMARK  205  A    between atoms: _507  and  _509
REMARK  206  A    between atoms: _509  and  _510
REMARK  207  A    between atoms: _509  and  _512
REMARK  208  A    between atoms: _512  and  _513
REMARK  209  A    between atoms: _519  and  _521
REMARK  210  A    between atoms: _521  and  _522
REMARK  211  A    between atoms: _524  and  _526
REMARK  212  A    between atoms: _526  and  _527
REMARK  213  A    between atoms: _526  and  _529
REMARK  214  A    between atoms: _529  and  _530
REMARK  215  A    between atoms: _530  and  _531
REMARK  216  A    between atoms: _531  and  _532
REMARK  217  A    between atoms: _532  and  _533
REMARK  218  A    between atoms: _537  and  _539
REMARK  219  A    between atoms: _539  and  _540
REMARK  220  A    between atoms: _542  and  _544
REMARK  221  A    between atoms: _544  and  _545
REMARK  222  A    between atoms: _544  and  _547
REMARK  223  A    between atoms: _550  and  _552
REMARK  224  A    between atoms: _552  and  _553
REMARK  225  A    between atoms: _555  and  _557
REMARK  226  A    between atoms: _557  and  _558
REMARK  227  A    between atoms: _557  and  _560
REMARK  228  A    between atoms: _560  and  _561
REMARK                            x       y       z     vdW  Elec       q    Type
REMARK                         _______ _______ _______ _____ _____    ______ ____
ROOT
ATOM      1  CA  ASP A   1      26.798 -16.086  -3.391  0.00  0.00    +0.144 C 
ENDROOT
BRANCH   1   2
ATOM      2  N   ASP A   1      27.877 -15.180  -2.973  0.00  0.00    -0.239 NA
ATOM      3  H   ASP A   1      27.897 -14.224  -3.381  0.00  0.00    +0.142 HD
ENDBRANCH   1   2
BRANCH   1   4
ATOM      4  C   ASP A   1      27.307 -17.304  -4.154  0.00  0.00    +0.225 C 
ATOM      5  O   ASP A   1      26.730 -18.383  -4.032  0.00  0.00    -0.287 OA
ENDBRANCH   1   4
BRANCH   1   6
ATOM      6  CB  ASP A   1      25.738 -15.340  -4.230  0.00  0.00    +0.139 C 
BRANCH   6   7
ATOM      7  CG  ASP A   1      24.855 -14.368  -3.474  0.00  0.00    +0.367 C 
ATOM      8  OD2 ASP A   1      24.548 -14.638  -2.293  0.00  0.00    -0.246 OA
ATOM      9  OD1 ASP A   1      24.372 -13.401  -4.097  0.00  0.00    -0.246 OA
ENDBRANCH   6   7
ENDBRANCH   1   6
TORSDOF 4
REMARK  Name = ../refined-set-2016/4pox/4pox_pocket.pdb
REMARK  228 active torsions:
REMARK  status: ('A' for Active; 'I' for Inactive)
REMARK    1  A    between atoms: _1  and  _3
REMARK    2  A    between atoms: _3  and  _4
REMARK    3  A    between atoms: _3  and  _6
REMARK    4  A    between atoms: _6  and  _7
REMARK    5  A    between atoms: _10  and  _12
REMARK    6  A    between atoms: _12  and  _13
REMARK    7  A    between atoms: _12  and  _15
REMARK    8  A    between atoms: _15  and  _16
REMARK    9  A    between atoms: _16  and  _17
REMARK   10  A    between atoms: _20  and  _22
REMARK   11  A    between atoms: _22  and  _23
REMARK   12  A    between atoms: _25  and  _27
REMARK   13  A    between atoms: _27  and  _28
REMARK   14  A    between atoms: _27  and  _30
REMARK   15  A    between atoms: _30  and  _31
REMARK   16  A    between atoms: _33  and  _35
REMARK   17  A    between atoms: _35  and  _36
REMARK   18  A    between atoms: _35  and  _38
REMARK   19  A    between atoms: _38  and  _39
REMARK   20  A    between atoms: _44  and  _45
REMARK   21  A    between atoms: _47  and  _49
REMARK   22  A    between atoms: _49  and  _50
REMARK   23  A    between atoms: _53  and  _55
REMARK   24  A    between atoms: _55  and  _56
REMARK   25  A    between atoms: _55  and  _58
REMARK   26  A    between atoms: _58  and  _59
REMARK   27  A    between atoms: _64  and  _65
REMARK   28  A    between atoms: _67  and  _69
REMARK   29  A    between atoms: _69  and  _70
REMARK   30  A    between atoms: _69  and  _72
REMARK   31  A    between atoms: _72  and  _73
REMARK   32  A    between atoms: _78  and  _80
REMARK   33  A    between atoms: _80  and  _81
REMARK   34  A    between atoms: _80  and  _83
REMARK   35  A    between atoms: _83  and  _84
REMARK   36  A    between atoms: _90  and  _92
REMARK   37  A    between atoms: _92  and  _93
REMARK   38  A    between atoms: _92  and  _95
REMARK   39  A    between atoms: _95  and  _96
REMARK   40  A    between atoms: _99  and  _101
REMARK   41  A    between atoms: _101  and  _102
REMARK   42  A    between atoms: _101  and  _104
REMARK   43  A    between atoms: _104  and  _105
REMARK   44  A    between atoms: _105  and  _106
REMARK   45  A    between atoms: _111  and  _113
REMARK   46  A    between atoms: _113  and  _114
REMARK   47  A    between atoms: _117  and  _119
REMARK   48  A    between atoms: _119  and  _120
REMARK   49  A    between atoms: _119  and  _122
REMARK   50  A    between atoms: _122  and  _123
REMARK   51  A    between atoms: _133  and  _135
REMARK   52  A    between atoms: _135  and  _136
REMARK   53  A    between atoms: _135  and  _138
REMARK   54  A    between atoms: _138  and  _139
REMARK   55  A    between atoms: _142  and  _144
REMARK   56  A    between atoms: _144  and  _145
REMARK   57  A    between atoms: _144  and  _147
REMARK   58  A    between atoms: _147  and  _148
REMARK   59  A    between atoms: _151  and  _153
REMARK   60  A    between atoms: _153  and  _154
REMARK   61  A    between atoms: _153  and  _156
REMARK   62  A    between atoms: _156  and  _157
REMARK   63  A    between atoms: _160  and  _162
REMARK   64  A    between atoms: _162  and  _163
REMARK   65  A    between atoms: _162  and  _165
REMARK   66  A    between atoms: _165  and  _166
REMARK   67  A    between atoms: _166  and  _167
REMARK   68  A    between atoms: _169  and  _171
REMARK   69  A    between atoms: _171  and  _172
REMARK   70  A    between atoms: _175  and  _177
REMARK   71  A    between atoms: _177  and  _178
REMARK   72  A    between atoms: _181  and  _183
REMARK   73  A    between atoms: _183  and  _184
REMARK   74  A    between atoms: _183  and  _186
REMARK   75  A    between atoms: _186  and  _187
REMARK   76  A    between atoms: _187  and  _188
REMARK   77  A    between atoms: _190  and  _192
REMARK   78  A    between atoms: _192  and  _193
REMARK   79  A    between atoms: _195  and  _197
REMARK   80  A    between atoms: _197  and  _198
REMARK   81  A    between atoms: _197  and  _200
REMARK   82  A    between atoms: _200  and  _201
REMARK   83  A    between atoms: _204  and  _206
REMARK   84  A    between atoms: _206  and  _207
REMARK   85  A    between atoms: _206  and  _209
REMARK   86  A    between atoms: _209  and  _210
REMARK   87  A    between atoms: _210  and  _211
REMARK   88  A    between atoms: _216  and  _218
REMARK   89  A    between atoms: _218  and  _219
REMARK   90  A    between atoms: _218  and  _221
REMARK   91  A    between atoms: _221  and  _222
REMARK   92  A    between atoms: _222  and  _223
REMARK   93  A    between atoms: _223  and  _224
REMARK   94  A    between atoms: _233  and  _235
REMARK   95  A    between atoms: _235  and  _236
REMARK   96  A    between atoms: _235  and  _238
REMARK   97  A    between atoms: _238  and  _239
REMARK   98  A    between atoms: _246  and  _247
REMARK   99  A    between atoms: _252  and  _254
REMARK  100  A    between atoms: _254  and  _255
REMARK  101  A    between atoms: _254  and  _257
REMARK  102  A    between atoms: _257  and  _258
REMARK  103  A    between atoms: _263  and  _264
REMARK  104  A    between atoms: _266  and  _268
REMARK  105  A    between atoms: _268  and  _269
REMARK  106  A    between atoms: _268  and  _271
REMARK  107  A    between atoms: _271  and  _272
REMARK  108  A    between atoms: _275  and  _277
REMARK  109  A    between atoms: _277  and  _278
REMARK  110  A    between atoms: _277  and  _280
REMARK  111  A    between atoms: _280  and  _281
REMARK  112  A    between atoms: _284  and  _286
REMARK  113  A    between atoms: _286  and  _287
REMARK  114  A    between atoms: _286  and  _289
REMARK  115  A    between atoms: _289  and  _290
REMARK  116  A    between atoms: _294  and  _295
REMARK  117  A    between atoms: _300  and  _302
REMARK  118  A    between atoms: _302  and  _303
REMARK  119  A    between atoms: _302  and  _305
REMARK  120  A    between atoms: _305  and  _306
REMARK  121  A    between atoms: _306  and  _307
REMARK  122  A    between atoms: _309  and  _311
REMARK  123  A    between atoms: _311  and  _312
REMARK  124  A    between atoms: _311  and  _314
REMARK  125  A    between atoms: _314  and  _315
REMARK  126  A    between atoms: _318  and  _320
REMARK  127  A    between atoms: _320  and  _321
REMARK  128  A    between atoms: _320  and  _323
REMARK  129  A    between atoms: _323  and  _324
REMARK  130  A    between atoms: _324  and  _325
REMARK  131  A    between atoms: _330  and  _332
REMARK  132  A    between atoms: _332  and  _333
REMARK  133  A    between atoms: _336  and  _338
REMARK  134  A    between atoms: _338  and  _339
REMARK  135  A    between atoms: _341  and  _343
REMARK  136  A    between atoms: _343  and  _344
REMARK  137  A    between atoms: _343  and  _346
REMARK  138  A    between atoms: _346  and  _347
REMARK  139  A    between atoms: _350  and  _352
REMARK  140  A    between atoms: _352  and  _353
REMARK  141  A    between atoms: _352  and  _355
REMARK  142  A    between atoms: _355  and  _356
REMARK  143  A    between atoms: _358  and  _360
REMARK  144  A    between atoms: _360  and  _361
REMARK  145  A    between atoms: _360  and  _363
REMARK  146  A    between atoms: _363  and  _364
REMARK  147  A    between atoms: _369  and  _371
REMARK  148  A    between atoms: _371  and  _372
REMARK  149  A    between atoms: _371  and  _374
REMARK  150  A    between atoms: _374  and  _375
REMARK  151  A    between atoms: _375  and  _376
REMARK  152  A    between atoms: _379  and  _381
REMARK  153  A    between atoms: _381  and  _382
REMARK  154  A    between atoms: _385  and  _387
REMARK  155  A    between atoms: _387  and  _388
REMARK  156  A    between atoms: _387  and  _390
REMARK  157  A    between atoms: _390  and  _391
REMARK  158  A    between atoms: _397  and  _399
REMARK  159  A    between atoms: _399  and  _400
REMARK  160  A    between atoms: _399  and  _402
REMARK  161  A    between atoms: _402  and  _403
REMARK  162  A    between atoms: _406  and  _408
REMARK  163  A    between atoms: _408  and  _409
REMARK  164  A    between atoms: _408  and  _411
REMARK  165  A    between atoms: _411  and  _412
REMARK  166  A    between atoms: _415  and  _417
REMARK  167  A    between atoms: _417  and  _418
REMARK  168  A    between atoms: _417  and  _420
REMARK  169  A    between atoms: _420  and  _421
REMARK  170  A    between atoms: _424  and  _426
REMARK  171  A    between atoms: _426  and  _427
REMARK  172  A    between atoms: _426  and  _429
REMARK  173  A    between atoms: _429  and  _430
REMARK  174  A    between atoms: _433  and  _435
REMARK  175  A    between atoms: _435  and  _436
REMARK  176  A    between atoms: _435  and  _438
REMARK  177  A    between atoms: _438  and  _439
REMARK  178  A    between atoms: _442  and  _444
REMARK  179  A    between atoms: _444  and  _445
REMARK  180  A    between atoms: _448  and  _450
REMARK  181  A    between atoms: _450  and  _451
REMARK  182  A    between atoms: _450  and  _453
REMARK  183  A    between atoms: _453  and  _454
REMARK  184  A    between atoms: _456  and  _458
REMARK  185  A    between atoms: _458  and  _459
REMARK  186  A    between atoms: _458  and  _461
REMARK  187  A    between atoms: _464  and  _466
REMARK  188  A    between atoms: _466  and  _467
REMARK  189  A    between atoms: _466  and  _469
REMARK  190  A    between atoms: _469  and  _470
REMARK  191  A    between atoms: _472  and  _474
REMARK  192  A    between atoms: _474  and  _475
REMARK  193  A    between atoms: _474  and  _477
REMARK  194  A    between atoms: _477  and  _478
REMARK  195  A    between atoms: _484  and  _486
REMARK  196  A    between atoms: _486  and  _487
REMARK  197  A    between atoms: _486  and  _489
REMARK  198  A    between atoms: _489  and  _490
REMARK  199  A    between atoms: _493  and  _495
REMARK  200  A    between atoms: _495  and  _496
REMARK  201  A    between atoms: _498  and  _500
REMARK  202  A    between atoms: _500  and  _501
REMARK  203  A    between atoms: _500  and  _503
REMARK  204  A    between atoms: _503  and  _504
REMARK  205  A    between atoms: _507  and  _509
REMARK  206  A    between atoms: _509  and  _510
REMARK  207  A    between atoms: _509  and  _512
REMARK  208  A    between atoms: _512  and  _513
REMARK  209  A    between atoms: _519  and  _521
REMARK  210  A    between atoms: _521  and  _522
REMARK  211  A    between atoms: _524  and  _526
REMARK  212  A    between atoms: _526  and  _527
REMARK  213  A    between atoms: _526  and  _529
REMARK  214  A    between atoms: _529  and  _530
REMARK  215  A    between atoms: _530  and  _531
REMARK  216  A    between atoms: _531  and  _532
REMARK  217  A    between atoms: _532  and  _533
REMARK  218  A    between atoms: _537  and  _539
REMARK  219  A    between atoms: _539  and  _540
REMARK  220  A    between atoms: _542  and  _544
REMARK  221  A    between atoms: _544  and  _545
REMARK  222  A    between atoms: _544  and  _547
REMARK  223  A    between atoms: _550  and  _552
REMARK  224  A    between atoms: _552  and  _553
REMARK  225  A    between atoms: _555  and  _557
REMARK  226  A    between atoms: _557  and  _558
REMARK  227  A    between atoms: _557  and  _560
REMARK  228  A    between atoms: _560  and  _561
REMARK                            x       y       z     vdW  Elec       q    Type
REMARK                         _______ _______ _______ _____ _____    ______ ____
ROOT
ATOM      1  CA  TRP A   3      17.495  -9.067 -12.011  0.00  0.00    +0.153 C 
ENDROOT
BRANCH   1   3
ATOM      2  C   ALA A   2      18.142 -10.234 -14.144  0.00  0.00    +0.241 C 
ATOM      3  N   TRP A   3      18.311  -9.262 -13.214  0.00  0.00    -0.297 N 
ATOM      4  H   TRP A   3      19.092  -8.592 -13.368  0.00  0.00    +0.150 HD
ATOM      5  O   ALA A   2      17.263 -11.100 -14.083  0.00  0.00    -0.273 OA
BRANCH   2   6
ATOM      6  CA  ALA A   2      19.145 -10.254 -15.310  0.00  0.00    +0.149 C 
ATOM      7  CB  ALA A   2      18.569  -9.517 -16.513  0.00  0.00    +0.031 C 
BRANCH   6  10
ATOM      8  C   GLN A   1      20.017 -12.515 -14.791  0.00  0.00    +0.238 C 
ATOM      9  O   GLN A   1      20.377 -12.199 -13.653  0.00  0.00    -0.274 OA
ATOM     10  N   ALA A   2      19.446 -11.647 -15.662  0.00  0.00    -0.297 N 
ATOM     11  H   ALA A   2      19.212 -11.982 -16.618  0.00  0.00    +0.150 HD
BRANCH   8  12
ATOM     12  CA  GLN A   1      20.205 -13.950 -15.263  0.00  0.00    +0.145 C 
BRANCH  12  13
ATOM     13  N   GLN A   1      21.592 -14.338 -15.027  0.00  0.00    -0.238 NA
ATOM     14  H   GLN A   1      22.057 -13.953 -14.180  0.00  0.00    +0.142 HD
ENDBRANCH  12  13
BRANCH  12  15
ATOM     15  CB  GLN A   1      19.251 -14.912 -14.515  0.00  0.00    +0.036 C 
BRANCH  15  16
ATOM     16  CG  GLN A   1      17.755 -14.547 -14.570  0.00  0.00    +0.087 C 
BRANCH  16  17
ATOM     17  CD  GLN A   1      17.142 -14.510 -15.962  0.00  0.00    +0.219 C 
ATOM     18  OE1 GLN A   1      16.409 -13.577 -16.311  0.00  0.00    -0.275 OA
ATOM     19  NE2 GLN A   1      17.411 -15.513 -16.791  0.00  0.00    -0.329 N 
ATOM     20 HE21 GLN A   1      18.029 -16.291 -16.483  0.00  0.00    +0.145 HD
ATOM     21 HE22 GLN A   1      17.003 -15.520 -17.748  0.00  0.00    +0.145 HD
ENDBRANCH  16  17
ENDBRANCH  15  16
ENDBRANCH  12  15
ENDBRANCH   8  12
ENDBRANCH   6  10
ENDBRANCH   2   6
ENDBRANCH   1   3
BRANCH   1  22
ATOM     22  C   TRP A   3      16.018  -8.949 -12.322  0.00  0.00    +0.241 C 
ATOM     23  O   TRP A   3      15.194  -9.446 -11.555  0.00  0.00    -0.273 OA
ATOM     24  N   ASP A   4      15.682  -8.294 -13.441  0.00  0.00    -0.298 N 
ATOM     25  H   ASP A   4      16.441  -7.857 -14.002  0.00  0.00    +0.150 HD
BRANCH  24  26
ATOM     26  CA  ASP A   4      14.313  -8.162 -13.913  0.00  0.00    +0.148 C 
BRANCH  26  27
ATOM     27  C   ASP A   4      13.996  -9.485 -14.647  0.00  0.00    +0.227 C 
ATOM     28  O   ASP A   4      14.598  -9.778 -15.691  0.00  0.00    -0.286 OA
ENDBRANCH  26  27
BRANCH  26  29
ATOM     29  CB  ASP A   4      14.215  -6.955 -14.869  0.00  0.00    +0.142 C 
BRANCH  29  30
ATOM     30  CG  ASP A   4      12.827  -6.643 -15.411  0.00  0.00    +0.367 C 
ATOM     31  OD2 ASP A   4      11.848  -6.727 -14.632  0.00  0.00    -0.246 OA
ATOM     32  OD1 ASP A   4      12.730  -6.248 -16.591  0.00  0.00    -0.246 OA
ENDBRANCH  29  30
ENDBRANCH  26  29
ENDBRANCH  24  26
ENDBRANCH   1  22
BRANCH   1  33
ATOM     33  CB  TRP A   3      18.000  -7.866 -11.184  0.00  0.00    +0.057 C 
BRANCH  33  34
ATOM     34  CG  TRP A   3      17.258  -7.658  -9.890  0.00  0.00    -0.002 A 
ATOM     35  CD2 TRP A   3      17.306  -8.497  -8.719  0.00  0.00    +0.013 A 
ATOM     36  CE2 TRP A   3      16.447  -7.920  -7.756  0.00  0.00    +0.056 A 
ATOM     37  CZ2 TRP A   3      16.257  -8.482  -6.486  0.00  0.00    +0.017 A 
ATOM     38  CH2 TRP A   3      16.954  -9.634  -6.192  0.00  0.00    +0.001 A 
ATOM     39  CZ3 TRP A   3      17.829 -10.220  -7.123  0.00  0.00    +0.000 A 
ATOM     40  NE1 TRP A   3      15.908  -6.791  -8.317  0.00  0.00    -0.352 N 
ATOM     41  HE1 TRP A   3      15.248  -6.140  -7.846  0.00  0.00    +0.166 HD
ATOM     42  CE3 TRP A   3      18.011  -9.669  -8.384  0.00  0.00    +0.001 A 
ATOM     43  CD1 TRP A   3      16.380  -6.655  -9.604  0.00  0.00    +0.068 A 
ENDBRANCH  33  34
ENDBRANCH   1  33
TORSDOF 15
REMARK  Name = ../refined-set-2016/4pox/4pox_pocket.pdb
REMARK  228 active torsions:
REMARK  status: ('A' for Active; 'I' for Inactive)
REMARK    1  A    between atoms: _1  and  _3
REMARK    2  A    between atoms: _3  and  _4
REMARK    3  A    between atoms: _3  and  _6
REMARK    4  A    between atoms: _6  and  _7
REMARK    5  A    between atoms: _10  and  _12
REMARK    6  A    between atoms: _12  and  _13
REMARK    7  A    between atoms: _12  and  _15
REMARK    8  A    between atoms: _15  and  _16
REMARK    9  A    between atoms: _16  and  _17
REMARK   10  A    between atoms: _20  and  _22
REMARK   11  A    between atoms: _22  and  _23
REMARK   12  A    between atoms: _25  and  _27
REMARK   13  A    between atoms: _27  and  _28
REMARK   14  A    between atoms: _27  and  _30
REMARK   15  A    between atoms: _30  and  _31
REMARK   16  A    between atoms: _33  and  _35
REMARK   17  A    between atoms: _35  and  _36
REMARK   18  A    between atoms: _35  and  _38
REMARK   19  A    between atoms: _38  and  _39
REMARK   20  A    between atoms: _44  and  _45
REMARK   21  A    between atoms: _47  and  _49
REMARK   22  A    between atoms: _49  and  _50
REMARK   23  A    between atoms: _53  and  _55
REMARK   24  A    between atoms: _55  and  _56
REMARK   25  A    between atoms: _55  and  _58
REMARK   26  A    between atoms: _58  and  _59
REMARK   27  A    between atoms: _64  and  _65
REMARK   28  A    between atoms: _67  and  _69
REMARK   29  A    between atoms: _69  and  _70
REMARK   30  A    between atoms: _69  and  _72
REMARK   31  A    between atoms: _72  and  _73
REMARK   32  A    between atoms: _78  and  _80
REMARK   33  A    between atoms: _80  and  _81
REMARK   34  A    between atoms: _80  and  _83
REMARK   35  A    between atoms: _83  and  _84
REMARK   36  A    between atoms: _90  and  _92
REMARK   37  A    between atoms: _92  and  _93
REMARK   38  A    between atoms: _92  and  _95
REMARK   39  A    between atoms: _95  and  _96
REMARK   40  A    between atoms: _99  and  _101
REMARK   41  A    between atoms: _101  and  _102
REMARK   42  A    between atoms: _101  and  _104
REMARK   43  A    between atoms: _104  and  _105
REMARK   44  A    between atoms: _105  and  _106
REMARK   45  A    between atoms: _111  and  _113
REMARK   46  A    between atoms: _113  and  _114
REMARK   47  A    between atoms: _117  and  _119
REMARK   48  A    between atoms: _119  and  _120
REMARK   49  A    between atoms: _119  and  _122
REMARK   50  A    between atoms: _122  and  _123
REMARK   51  A    between atoms: _133  and  _135
REMARK   52  A    between atoms: _135  and  _136
REMARK   53  A    between atoms: _135  and  _138
REMARK   54  A    between atoms: _138  and  _139
REMARK   55  A    between atoms: _142  and  _144
REMARK   56  A    between atoms: _144  and  _145
REMARK   57  A    between atoms: _144  and  _147
REMARK   58  A    between atoms: _147  and  _148
REMARK   59  A    between atoms: _151  and  _153
REMARK   60  A    between atoms: _153  and  _154
REMARK   61  A    between atoms: _153  and  _156
REMARK   62  A    between atoms: _156  and  _157
REMARK   63  A    between atoms: _160  and  _162
REMARK   64  A    between atoms: _162  and  _163
REMARK   65  A    between atoms: _162  and  _165
REMARK   66  A    between atoms: _165  and  _166
REMARK   67  A    between atoms: _166  and  _167
REMARK   68  A    between atoms: _169  and  _171
REMARK   69  A    between atoms: _171  and  _172
REMARK   70  A    between atoms: _175  and  _177
REMARK   71  A    between atoms: _177  and  _178
REMARK   72  A    between atoms: _181  and  _183
REMARK   73  A    between atoms: _183  and  _184
REMARK   74  A    between atoms: _183  and  _186
REMARK   75  A    between atoms: _186  and  _187
REMARK   76  A    between atoms: _187  and  _188
REMARK   77  A    between atoms: _190  and  _192
REMARK   78  A    between atoms: _192  and  _193
REMARK   79  A    between atoms: _195  and  _197
REMARK   80  A    between atoms: _197  and  _198
REMARK   81  A    between atoms: _197  and  _200
REMARK   82  A    between atoms: _200  and  _201
REMARK   83  A    between atoms: _204  and  _206
REMARK   84  A    between atoms: _206  and  _207
REMARK   85  A    between atoms: _206  and  _209
REMARK   86  A    between atoms: _209  and  _210
REMARK   87  A    between atoms: _210  and  _211
REMARK   88  A    between atoms: _216  and  _218
REMARK   89  A    between atoms: _218  and  _219
REMARK   90  A    between atoms: _218  and  _221
REMARK   91  A    between atoms: _221  and  _222
REMARK   92  A    between atoms: _222  and  _223
REMARK   93  A    between atoms: _223  and  _224
REMARK   94  A    between atoms: _233  and  _235
REMARK   95  A    between atoms: _235  and  _236
REMARK   96  A    between atoms: _235  and  _238
REMARK   97  A    between atoms: _238  and  _239
REMARK   98  A    between atoms: _246  and  _247
REMARK   99  A    between atoms: _252  and  _254
REMARK  100  A    between atoms: _254  and  _255
REMARK  101  A    between atoms: _254  and  _257
REMARK  102  A    between atoms: _257  and  _258
REMARK  103  A    between atoms: _263  and  _264
REMARK  104  A    between atoms: _266  and  _268
REMARK  105  A    between atoms: _268  and  _269
REMARK  106  A    between atoms: _268  and  _271
REMARK  107  A    between atoms: _271  and  _272
REMARK  108  A    between atoms: _275  and  _277
REMARK  109  A    between atoms: _277  and  _278
REMARK  110  A    between atoms: _277  and  _280
REMARK  111  A    between atoms: _280  and  _281
REMARK  112  A    between atoms: _284  and  _286
REMARK  113  A    between atoms: _286  and  _287
REMARK  114  A    between atoms: _286  and  _289
REMARK  115  A    between atoms: _289  and  _290
REMARK  116  A    between atoms: _294  and  _295
REMARK  117  A    between atoms: _300  and  _302
REMARK  118  A    between atoms: _302  and  _303
REMARK  119  A    between atoms: _302  and  _305
REMARK  120  A    between atoms: _305  and  _306
REMARK  121  A    between atoms: _306  and  _307
REMARK  122  A    between atoms: _309  and  _311
REMARK  123  A    between atoms: _311  and  _312
REMARK  124  A    between atoms: _311  and  _314
REMARK  125  A    between atoms: _314  and  _315
REMARK  126  A    between atoms: _318  and  _320
REMARK  127  A    between atoms: _320  and  _321
REMARK  128  A    between atoms: _320  and  _323
REMARK  129  A    between atoms: _323  and  _324
REMARK  130  A    between atoms: _324  and  _325
REMARK  131  A    between atoms: _330  and  _332
REMARK  132  A    between atoms: _332  and  _333
REMARK  133  A    between atoms: _336  and  _338
REMARK  134  A    between atoms: _338  and  _339
REMARK  135  A    between atoms: _341  and  _343
REMARK  136  A    between atoms: _343  and  _344
REMARK  137  A    between atoms: _343  and  _346
REMARK  138  A    between atoms: _346  and  _347
REMARK  139  A    between atoms: _350  and  _352
REMARK  140  A    between atoms: _352  and  _353
REMARK  141  A    between atoms: _352  and  _355
REMARK  142  A    between atoms: _355  and  _356
REMARK  143  A    between atoms: _358  and  _360
REMARK  144  A    between atoms: _360  and  _361
REMARK  145  A    between atoms: _360  and  _363
REMARK  146  A    between atoms: _363  and  _364
REMARK  147  A    between atoms: _369  and  _371
REMARK  148  A    between atoms: _371  and  _372
REMARK  149  A    between atoms: _371  and  _374
REMARK  150  A    between atoms: _374  and  _375
REMARK  151  A    between atoms: _375  and  _376
REMARK  152  A    between atoms: _379  and  _381
REMARK  153  A    between atoms: _381  and  _382
REMARK  154  A    between atoms: _385  and  _387
REMARK  155  A    between atoms: _387  and  _388
REMARK  156  A    between atoms: _387  and  _390
REMARK  157  A    between atoms: _390  and  _391
REMARK  158  A    between atoms: _397  and  _399
REMARK  159  A    between atoms: _399  and  _400
REMARK  160  A    between atoms: _399  and  _402
REMARK  161  A    between atoms: _402  and  _403
REMARK  162  A    between atoms: _406  and  _408
REMARK  163  A    between atoms: _408  and  _409
REMARK  164  A    between atoms: _408  and  _411
REMARK  165  A    between atoms: _411  and  _412
REMARK  166  A    between atoms: _415  and  _417
REMARK  167  A    between atoms: _417  and  _418
REMARK  168  A    between atoms: _417  and  _420
REMARK  169  A    between atoms: _420  and  _421
REMARK  170  A    between atoms: _424  and  _426
REMARK  171  A    between atoms: _426  and  _427
REMARK  172  A    between atoms: _426  and  _429
REMARK  173  A    between atoms: _429  and  _430
REMARK  174  A    between atoms: _433  and  _435
REMARK  175  A    between atoms: _435  and  _436
REMARK  176  A    between atoms: _435  and  _438
REMARK  177  A    between atoms: _438  and  _439
REMARK  178  A    between atoms: _442  and  _444
REMARK  179  A    between atoms: _444  and  _445
REMARK  180  A    between atoms: _448  and  _450
REMARK  181  A    between atoms: _450  and  _451
REMARK  182  A    between atoms: _450  and  _453
REMARK  183  A    between atoms: _453  and  _454
REMARK  184  A    between atoms: _456  and  _458
REMARK  185  A    between atoms: _458  and  _459
REMARK  186  A    between atoms: _458  and  _461
REMARK  187  A    between atoms: _464  and  _466
REMARK  188  A    between atoms: _466  and  _467
REMARK  189  A    between atoms: _466  and  _469
REMARK  190  A    between atoms: _469  and  _470
REMARK  191  A    between atoms: _472  and  _474
REMARK  192  A    between atoms: _474  and  _475
REMARK  193  A    between atoms: _474  and  _477
REMARK  194  A    between atoms: _477  and  _478
REMARK  195  A    between atoms: _484  and  _486
REMARK  196  A    between atoms: _486  and  _487
REMARK  197  A    between atoms: _486  and  _489
REMARK  198  A    between atoms: _489  and  _490
REMARK  199  A    between atoms: _493  and  _495
REMARK  200  A    between atoms: _495  and  _496
REMARK  201  A    between atoms: _498  and  _500
REMARK  202  A    between atoms: _500  and  _501
REMARK  203  A    between atoms: _500  and  _503
REMARK  204  A    between atoms: _503  and  _504
REMARK  205  A    between atoms: _507  and  _509
REMARK  206  A    between atoms: _509  and  _510
REMARK  207  A    between atoms: _509  and  _512
REMARK  208  A    between atoms: _512  and  _513
REMARK  209  A    between atoms: _519  and  _521
REMARK  210  A    between atoms: _521  and  _522
REMARK  211  A    between atoms: _524  and  _526
REMARK  212  A    between atoms: _526  and  _527
REMARK  213  A    between atoms: _526  and  _529
REMARK  214  A    between atoms: _529  and  _530
REMARK  215  A    between atoms: _530  and  _531
REMARK  216  A    between atoms: _531  and  _532
REMARK  217  A    between atoms: _532  and  _533
REMARK  218  A    between atoms: _537  and  _539
REMARK  219  A    between atoms: _539  and  _540
REMARK  220  A    between atoms: _542  and  _544
REMARK  221  A    between atoms: _544  and  _545
REMARK  222  A    between atoms: _544  and  _547
REMARK  223  A    between atoms: _550  and  _552
REMARK  224  A    between atoms: _552  and  _553
REMARK  225  A    between atoms: _555  and  _557
REMARK  226  A    between atoms: _557  and  _558
REMARK  227  A    between atoms: _557  and  _560
REMARK  228  A    between atoms: _560  and  _561
REMARK                            x       y       z     vdW  Elec       q    Type
REMARK                         _______ _______ _______ _____ _____    ______ ____
ROOT
ATOM      1  CA  ILE A   1      14.927 -13.614 -12.086  0.00  0.00    +0.133 C 
ENDROOT
BRANCH   1   2
ATOM      2  N   ILE A   1      14.271 -12.553 -12.870  0.00  0.00    -0.239 NA
ATOM      3  H   ILE A   1      14.449 -11.563 -12.604  0.00  0.00    +0.142 HD
ENDBRANCH   1   2
BRANCH   1   4
ATOM      4  CB  ILE A   1      16.097 -13.085 -11.190  0.00  0.00    +0.023 C 
ATOM      5  CG2 ILE A   1      15.602 -12.323  -9.957  0.00  0.00    +0.002 C 
BRANCH   4   6
ATOM      6  CG1 ILE A   1      17.106 -14.201 -10.817  0.00  0.00    +0.002 C 
ATOM      7  CD1 ILE A   1      18.544 -13.716 -10.446  0.00  0.00    +0.000 C 
ENDBRANCH   4   6
ENDBRANCH   1   4
BRANCH   1   8
ATOM      8  C   ILE A   1      13.892 -14.524 -11.357  0.00  0.00    +0.224 C 
ATOM      9  O   ILE A   1      14.072 -15.742 -11.318  0.00  0.00    -0.287 OA
ENDBRANCH   1   8
TORSDOF 4
REMARK  Name = ../refined-set-2016/4pox/4pox_pocket.pdb
REMARK  228 active torsions:
REMARK  status: ('A' for Active; 'I' for Inactive)
REMARK    1  A    between atoms: _1  and  _3
REMARK    2  A    between atoms: _3  and  _4
REMARK    3  A    between atoms: _3  and  _6
REMARK    4  A    between atoms: _6  and  _7
REMARK    5  A    between atoms: _10  and  _12
REMARK    6  A    between atoms: _12  and  _13
REMARK    7  A    between atoms: _12  and  _15
REMARK    8  A    between atoms: _15  and  _16
REMARK    9  A    between atoms: _16  and  _17
REMARK   10  A    between atoms: _20  and  _22
REMARK   11  A    between atoms: _22  and  _23
REMARK   12  A    between atoms: _25  and  _27
REMARK   13  A    between atoms: _27  and  _28
REMARK   14  A    between atoms: _27  and  _30
REMARK   15  A    between atoms: _30  and  _31
REMARK   16  A    between atoms: _33  and  _35
REMARK   17  A    between atoms: _35  and  _36
REMARK   18  A    between atoms: _35  and  _38
REMARK   19  A    between atoms: _38  and  _39
REMARK   20  A    between atoms: _44  and  _45
REMARK   21  A    between atoms: _47  and  _49
REMARK   22  A    between atoms: _49  and  _50
REMARK   23  A    between atoms: _53  and  _55
REMARK   24  A    between atoms: _55  and  _56
REMARK   25  A    between atoms: _55  and  _58
REMARK   26  A    between atoms: _58  and  _59
REMARK   27  A    between atoms: _64  and  _65
REMARK   28  A    between atoms: _67  and  _69
REMARK   29  A    between atoms: _69  and  _70
REMARK   30  A    between atoms: _69  and  _72
REMARK   31  A    between atoms: _72  and  _73
REMARK   32  A    between atoms: _78  and  _80
REMARK   33  A    between atoms: _80  and  _81
REMARK   34  A    between atoms: _80  and  _83
REMARK   35  A    between atoms: _83  and  _84
REMARK   36  A    between atoms: _90  and  _92
REMARK   37  A    between atoms: _92  and  _93
REMARK   38  A    between atoms: _92  and  _95
REMARK   39  A    between atoms: _95  and  _96
REMARK   40  A    between atoms: _99  and  _101
REMARK   41  A    between atoms: _101  and  _102
REMARK   42  A    between atoms: _101  and  _104
REMARK   43  A    between atoms: _104  and  _105
REMARK   44  A    between atoms: _105  and  _106
REMARK   45  A    between atoms: _111  and  _113
REMARK   46  A    between atoms: _113  and  _114
REMARK   47  A    between atoms: _117  and  _119
REMARK   48  A    between atoms: _119  and  _120
REMARK   49  A    between atoms: _119  and  _122
REMARK   50  A    between atoms: _122  and  _123
REMARK   51  A    between atoms: _133  and  _135
REMARK   52  A    between atoms: _135  and  _136
REMARK   53  A    between atoms: _135  and  _138
REMARK   54  A    between atoms: _138  and  _139
REMARK   55  A    between atoms: _142  and  _144
REMARK   56  A    between atoms: _144  and  _145
REMARK   57  A    between atoms: _144  and  _147
REMARK   58  A    between atoms: _147  and  _148
REMARK   59  A    between atoms: _151  and  _153
REMARK   60  A    between atoms: _153  and  _154
REMARK   61  A    between atoms: _153  and  _156
REMARK   62  A    between atoms: _156  and  _157
REMARK   63  A    between atoms: _160  and  _162
REMARK   64  A    between atoms: _162  and  _163
REMARK   65  A    between atoms: _162  and  _165
REMARK   66  A    between atoms: _165  and  _166
REMARK   67  A    between atoms: _166  and  _167
REMARK   68  A    between atoms: _169  and  _171
REMARK   69  A    between atoms: _171  and  _172
REMARK   70  A    between atoms: _175  and  _177
REMARK   71  A    between atoms: _177  and  _178
REMARK   72  A    between atoms: _181  and  _183
REMARK   73  A    between atoms: _183  and  _184
REMARK   74  A    between atoms: _183  and  _186
REMARK   75  A    between atoms: _186  and  _187
REMARK   76  A    between atoms: _187  and  _188
REMARK   77  A    between atoms: _190  and  _192
REMARK   78  A    between atoms: _192  and  _193
REMARK   79  A    between atoms: _195  and  _197
REMARK   80  A    between atoms: _197  and  _198
REMARK   81  A    between atoms: _197  and  _200
REMARK   82  A    between atoms: _200  and  _201
REMARK   83  A    between atoms: _204  and  _206
REMARK   84  A    between atoms: _206  and  _207
REMARK   85  A    between atoms: _206  and  _209
REMARK   86  A    between atoms: _209  and  _210
REMARK   87  A    between atoms: _210  and  _211
REMARK   88  A    between atoms: _216  and  _218
REMARK   89  A    between atoms: _218  and  _219
REMARK   90  A    between atoms: _218  and  _221
REMARK   91  A    between atoms: _221  and  _222
REMARK   92  A    between atoms: _222  and  _223
REMARK   93  A    between atoms: _223  and  _224
REMARK   94  A    between atoms: _233  and  _235
REMARK   95  A    between atoms: _235  and  _236
REMARK   96  A    between atoms: _235  and  _238
REMARK   97  A    between atoms: _238  and  _239
REMARK   98  A    between atoms: _246  and  _247
REMARK   99  A    between atoms: _252  and  _254
REMARK  100  A    between atoms: _254  and  _255
REMARK  101  A    between atoms: _254  and  _257
REMARK  102  A    between atoms: _257  and  _258
REMARK  103  A    between atoms: _263  and  _264
REMARK  104  A    between atoms: _266  and  _268
REMARK  105  A    between atoms: _268  and  _269
REMARK  106  A    between atoms: _268  and  _271
REMARK  107  A    between atoms: _271  and  _272
REMARK  108  A    between atoms: _275  and  _277
REMARK  109  A    between atoms: _277  and  _278
REMARK  110  A    between atoms: _277  and  _280
REMARK  111  A    between atoms: _280  and  _281
REMARK  112  A    between atoms: _284  and  _286
REMARK  113  A    between atoms: _286  and  _287
REMARK  114  A    between atoms: _286  and  _289
REMARK  115  A    between atoms: _289  and  _290
REMARK  116  A    between atoms: _294  and  _295
REMARK  117  A    between atoms: _300  and  _302
REMARK  118  A    between atoms: _302  and  _303
REMARK  119  A    between atoms: _302  and  _305
REMARK  120  A    between atoms: _305  and  _306
REMARK  121  A    between atoms: _306  and  _307
REMARK  122  A    between atoms: _309  and  _311
REMARK  123  A    between atoms: _311  and  _312
REMARK  124  A    between atoms: _311  and  _314
REMARK  125  A    between atoms: _314  and  _315
REMARK  126  A    between atoms: _318  and  _320
REMARK  127  A    between atoms: _320  and  _321
REMARK  128  A    between atoms: _320  and  _323
REMARK  129  A    between atoms: _323  and  _324
REMARK  130  A    between atoms: _324  and  _325
REMARK  131  A    between atoms: _330  and  _332
REMARK  132  A    between atoms: _332  and  _333
REMARK  133  A    between atoms: _336  and  _338
REMARK  134  A    between atoms: _338  and  _339
REMARK  135  A    between atoms: _341  and  _343
REMARK  136  A    between atoms: _343  and  _344
REMARK  137  A    between atoms: _343  and  _346
REMARK  138  A    between atoms: _346  and  _347
REMARK  139  A    between atoms: _350  and  _352
REMARK  140  A    between atoms: _352  and  _353
REMARK  141  A    between atoms: _352  and  _355
REMARK  142  A    between atoms: _355  and  _356
REMARK  143  A    between atoms: _358  and  _360
REMARK  144  A    between atoms: _360  and  _361
REMARK  145  A    between atoms: _360  and  _363
REMARK  146  A    between atoms: _363  and  _364
REMARK  147  A    between atoms: _369  and  _371
REMARK  148  A    between atoms: _371  and  _372
REMARK  149  A    between atoms: _371  and  _374
REMARK  150  A    between atoms: _374  and  _375
REMARK  151  A    between atoms: _375  and  _376
REMARK  152  A    between atoms: _379  and  _381
REMARK  153  A    between atoms: _381  and  _382
REMARK  154  A    between atoms: _385  and  _387
REMARK  155  A    between atoms: _387  and  _388
REMARK  156  A    between atoms: _387  and  _390
REMARK  157  A    between atoms: _390  and  _391
REMARK  158  A    between atoms: _397  and  _399
REMARK  159  A    between atoms: _399  and  _400
REMARK  160  A    between atoms: _399  and  _402
REMARK  161  A    between atoms: _402  and  _403
REMARK  162  A    between atoms: _406  and  _408
REMARK  163  A    between atoms: _408  and  _409
REMARK  164  A    between atoms: _408  and  _411
REMARK  165  A    between atoms: _411  and  _412
REMARK  166  A    between atoms: _415  and  _417
REMARK  167  A    between atoms: _417  and  _418
REMARK  168  A    between atoms: _417  and  _420
REMARK  169  A    between atoms: _420  and  _421
REMARK  170  A    between atoms: _424  and  _426
REMARK  171  A    between atoms: _426  and  _427
REMARK  172  A    between atoms: _426  and  _429
REMARK  173  A    between atoms: _429  and  _430
REMARK  174  A    between atoms: _433  and  _435
REMARK  175  A    between atoms: _435  and  _436
REMARK  176  A    between atoms: _435  and  _438
REMARK  177  A    between atoms: _438  and  _439
REMARK  178  A    between atoms: _442  and  _444
REMARK  179  A    between atoms: _444  and  _445
REMARK  180  A    between atoms: _448  and  _450
REMARK  181  A    between atoms: _450  and  _451
REMARK  182  A    between atoms: _450  and  _453
REMARK  183  A    between atoms: _453  and  _454
REMARK  184  A    between atoms: _456  and  _458
REMARK  185  A    between atoms: _458  and  _459
REMARK  186  A    between atoms: _458  and  _461
REMARK  187  A    between atoms: _464  and  _466
REMARK  188  A    between atoms: _466  and  _467
REMARK  189  A    between atoms: _466  and  _469
REMARK  190  A    between atoms: _469  and  _470
REMARK  191  A    between atoms: _472  and  _474
REMARK  192  A    between atoms: _474  and  _475
REMARK  193  A    between atoms: _474  and  _477
REMARK  194  A    between atoms: _477  and  _478
REMARK  195  A    between atoms: _484  and  _486
REMARK  196  A    between atoms: _486  and  _487
REMARK  197  A    between atoms: _486  and  _489
REMARK  198  A    between atoms: _489  and  _490
REMARK  199  A    between atoms: _493  and  _495
REMARK  200  A    between atoms: _495  and  _496
REMARK  201  A    between atoms: _498  and  _500
REMARK  202  A    between atoms: _500  and  _501
REMARK  203  A    between atoms: _500  and  _503
REMARK  204  A    between atoms: _503  and  _504
REMARK  205  A    between atoms: _507  and  _509
REMARK  206  A    between atoms: _509  and  _510
REMARK  207  A    between atoms: _509  and  _512
REMARK  208  A    between atoms: _512  and  _513
REMARK  209  A    between atoms: _519  and  _521
REMARK  210  A    between atoms: _521  and  _522
REMARK  211  A    between atoms: _524  and  _526
REMARK  212  A    between atoms: _526  and  _527
REMARK  213  A    between atoms: _526  and  _529
REMARK  214  A    between atoms: _529  and  _530
REMARK  215  A    between atoms: _530  and  _531
REMARK  216  A    between atoms: _531  and  _532
REMARK  217  A    between atoms: _532  and  _533
REMARK  218  A    between atoms: _537  and  _539
REMARK  219  A    between atoms: _539  and  _540
REMARK  220  A    between atoms: _542  and  _544
REMARK  221  A    between atoms: _544  and  _545
REMARK  222  A    between atoms: _544  and  _547
REMARK  223  A    between atoms: _550  and  _552
REMARK  224  A    between atoms: _552  and  _553
REMARK  225  A    between atoms: _555  and  _557
REMARK  226  A    between atoms: _557  and  _558
REMARK  227  A    between atoms: _557  and  _560
REMARK  228  A    between atoms: _560  and  _561
REMARK                            x       y       z     vdW  Elec       q    Type
REMARK                         _______ _______ _______ _____ _____    ______ ____
ROOT
ATOM      1  CA  MET A   5      17.788 -11.774  -2.560  0.00  0.00    +0.149 C 
ENDROOT
BRANCH   1   4
ATOM      2  C   ALA A   4      20.075 -10.861  -2.538  0.00  0.00    +0.241 C 
ATOM      3  O   ALA A   4      19.684  -9.738  -2.239  0.00  0.00    -0.273 OA
ATOM      4  N   MET A   5      19.236 -11.909  -2.685  0.00  0.00    -0.297 N 
ATOM      5  H   MET A   5      19.636 -12.846  -2.895  0.00  0.00    +0.150 HD
BRANCH   2   6
ATOM      6  CA  ALA A   4      21.575 -11.121  -2.775  0.00  0.00    +0.149 C 
ATOM      7  CB  ALA A   4      22.301  -9.821  -3.106  0.00  0.00    +0.031 C 
BRANCH   6   9
ATOM      8  C   ALA A   3      21.231 -12.051  -5.093  0.00  0.00    +0.241 C 
ATOM      9  N   ALA A   4      21.768 -12.115  -3.843  0.00  0.00    -0.297 N 
ATOM     10  H   ALA A   4      22.366 -12.937  -3.624  0.00  0.00    +0.150 HD
ATOM     11  O   ALA A   3      20.574 -11.090  -5.490  0.00  0.00    -0.273 OA
BRANCH   8  12
ATOM     12  CA  ALA A   3      21.518 -13.218  -6.044  0.00  0.00    +0.149 C 
ATOM     13  CB  ALA A   3      20.749 -13.054  -7.358  0.00  0.00    +0.031 C 
BRANCH  12  15
ATOM     14  C   MET A   2      21.921 -15.616  -5.693  0.00  0.00    +0.241 C 
ATOM     15  N   ALA A   3      21.198 -14.516  -5.452  0.00  0.00    -0.297 N 
ATOM     16  H   ALA A   3      20.376 -14.587  -4.819  0.00  0.00    +0.150 HD
ATOM     17  O   MET A   2      22.898 -15.622  -6.429  0.00  0.00    -0.273 OA
BRANCH  14  18
ATOM     18  CA  MET A   2      21.387 -16.909  -5.129  0.00  0.00    +0.149 C 
BRANCH  18  21
ATOM     19  C   ILE A   1      19.201 -17.825  -5.830  0.00  0.00    +0.238 C 
ATOM     20  O   ILE A   1      18.772 -17.917  -4.681  0.00  0.00    -0.274 OA
ATOM     21  N   MET A   2      20.434 -17.399  -6.122  0.00  0.00    -0.297 N 
ATOM     22  H   MET A   2      20.733 -17.418  -7.118  0.00  0.00    +0.150 HD
BRANCH  19  23
ATOM     23  CA  ILE A   1      18.284 -18.151  -7.009  0.00  0.00    +0.145 C 
BRANCH  23  24
ATOM     24  N   ILE A   1      17.768 -19.521  -6.866  0.00  0.00    -0.238 NA
ATOM     25  H   ILE A   1      17.226 -19.750  -6.008  0.00  0.00    +0.142 HD
ENDBRANCH  23  24
BRANCH  23  26
ATOM     26  CB  ILE A   1      17.171 -17.060  -7.116  0.00  0.00    +0.025 C 
ATOM     27  CG2 ILE A   1      17.791 -15.646  -7.209  0.00  0.00    +0.002 C 
BRANCH  26  28
ATOM     28  CG1 ILE A   1      16.172 -17.330  -8.252  0.00  0.00    +0.002 C 
ATOM     29  CD1 ILE A   1      14.859 -16.520  -8.107  0.00  0.00    +0.000 C 
ENDBRANCH  26  28
ENDBRANCH  23  26
ENDBRANCH  19  23
ENDBRANCH  18  21
BRANCH  18  30
ATOM     30  CB  MET A   2      22.483 -17.937  -4.809  0.00  0.00    +0.041 C 
BRANCH  30  31
ATOM     31  CG  MET A   2      21.992 -19.026  -3.902  0.00  0.00    +0.060 C 
BRANCH  31  32
ATOM     32  SD  MET A   2      23.291 -20.107  -3.317  0.00  0.00    -0.139 S 
ATOM     33  CE  MET A   2      24.007 -19.097  -2.022  0.00  0.00    +0.069 C 
ENDBRANCH  31  32
ENDBRANCH  30  31
ENDBRANCH  18  30
ENDBRANCH  14  18
ENDBRANCH  12  15
ENDBRANCH   8  12
ENDBRANCH   6   9
ENDBRANCH   2   6
ENDBRANCH   1   4
BRANCH   1  34
ATOM     34  C   MET A   5      17.266 -11.882  -1.152  0.00  0.00    +0.241 C 
ATOM     35  O   MET A   5      17.348 -12.937  -0.527  0.00  0.00    -0.273 OA
ATOM     36  N   GLY A   6      16.681 -10.784  -0.698  0.00  0.00    -0.295 N 
ATOM     37  H   GLY A   6      16.681  -9.941  -1.308  0.00  0.00    +0.150 HD
BRANCH  36  38
ATOM     38  CA  GLY A   6      16.040 -10.688   0.601  0.00  0.00    +0.176 C 
BRANCH  38  39
ATOM     39  C   GLY A   6      14.755 -11.491   0.652  0.00  0.00    +0.243 C 
ATOM     40  N   ILE A   7      14.503 -12.151   1.785  0.00  0.00    -0.297 N 
ATOM     41  H   ILE A   7      15.207 -12.102   2.549  0.00  0.00    +0.150 HD
ATOM     42  O   GLY A   6      14.014 -11.540  -0.329  0.00  0.00    -0.273 OA
BRANCH  40  43
ATOM     43  CA  ILE A   7      13.291 -12.940   2.012  0.00  0.00    +0.149 C 
BRANCH  43  44
ATOM     44  C   ILE A   7      12.226 -11.888   2.340  0.00  0.00    +0.241 C 
ATOM     45  O   ILE A   7      11.999 -11.560   3.509  0.00  0.00    -0.273 OA
ATOM     46  N   GLN A   8      11.671 -11.290   1.274  0.00  0.00    -0.298 N 
ATOM     47  H   GLN A   8      11.971 -11.634   0.340  0.00  0.00    +0.150 HD
BRANCH  46  48
ATOM     48  CA  GLN A   8      10.687 -10.204   1.286  0.00  0.00    +0.137 C 
BRANCH  48  49
ATOM     49  C   GLN A   8       9.226 -10.733   1.232  0.00  0.00    +0.227 C 
ATOM     50  O   GLN A   8       8.983 -11.737   0.565  0.00  0.00    -0.286 OA
ENDBRANCH  48  49
BRANCH  48  51
ATOM     51  CB  GLN A   8      11.039  -9.162   0.191  0.00  0.00    +0.037 C 
BRANCH  51  52
ATOM     52  CG  GLN A   8       9.858  -8.656  -0.644  0.00  0.00    +0.087 C 
BRANCH  52  53
ATOM     53  CD  GLN A   8       9.903  -7.175  -0.810  0.00  0.00    +0.219 C 
ATOM     54  NE2 GLN A   8       9.158  -6.472   0.018  0.00  0.00    -0.329 N 
ATOM     55 HE21 GLN A   8       8.583  -6.955   0.738  0.00  0.00    +0.145 HD
ATOM     56 HE22 GLN A   8       9.145  -5.434  -0.048  0.00  0.00    +0.145 HD
ATOM     57  OE1 GLN A   8      10.601  -6.647  -1.679  0.00  0.00    -0.275 OA
ENDBRANCH  52  53
ENDBRANCH  51  52
ENDBRANCH  48  51
ENDBRANCH  46  48
ENDBRANCH  43  44
BRANCH  43  58
ATOM     58  CB  ILE A   7      13.497 -13.995   3.154  0.00  0.00    +0.027 C 
ATOM     59  CG2 ILE A   7      12.227 -14.854   3.356  0.00  0.00    +0.002 C 
BRANCH  58  60
ATOM     60  CG1 ILE A   7      14.752 -14.860   2.906  0.00  0.00    +0.002 C 
ATOM     61  CD1 ILE A   7      15.328 -15.552   4.149  0.00  0.00    +0.000 C 
ENDBRANCH  58  60
ENDBRANCH  43  58
ENDBRANCH  40  43
ENDBRANCH  38  39
ENDBRANCH  36  38
ENDBRANCH   1  34
BRANCH   1  62
ATOM     62  CB  MET A   5      17.049 -12.735  -3.502  0.00  0.00    +0.041 C 
BRANCH  62  63
ATOM     63  CG  MET A   5      15.588 -12.401  -3.666  0.00  0.00    +0.060 C 
BRANCH  63  64
ATOM     64  SD  MET A   5      14.742 -13.545  -4.756  0.00  0.00    -0.139 S 
ATOM     65  CE  MET A   5      15.207 -12.891  -6.307  0.00  0.00    +0.069 C 
ENDBRANCH  63  64
ENDBRANCH  62  63
ENDBRANCH   1  62
TORSDOF 29
REMARK  Name = ../refined-set-2016/4pox/4pox_pocket.pdb
REMARK  228 active torsions:
REMARK  status: ('A' for Active; 'I' for Inactive)
REMARK    1  A    between atoms: _1  and  _3
REMARK    2  A    between atoms: _3  and  _4
REMARK    3  A    between atoms: _3  and  _6
REMARK    4  A    between atoms: _6  and  _7
REMARK    5  A    between atoms: _10  and  _12
REMARK    6  A    between atoms: _12  and  _13
REMARK    7  A    between atoms: _12  and  _15
REMARK    8  A    between atoms: _15  and  _16
REMARK    9  A    between atoms: _16  and  _17
REMARK   10  A    between atoms: _20  and  _22
REMARK   11  A    between atoms: _22  and  _23
REMARK   12  A    between atoms: _25  and  _27
REMARK   13  A    between atoms: _27  and  _28
REMARK   14  A    between atoms: _27  and  _30
REMARK   15  A    between atoms: _30  and  _31
REMARK   16  A    between atoms: _33  and  _35
REMARK   17  A    between atoms: _35  and  _36
REMARK   18  A    between atoms: _35  and  _38
REMARK   19  A    between atoms: _38  and  _39
REMARK   20  A    between atoms: _44  and  _45
REMARK   21  A    between atoms: _47  and  _49
REMARK   22  A    between atoms: _49  and  _50
REMARK   23  A    between atoms: _53  and  _55
REMARK   24  A    between atoms: _55  and  _56
REMARK   25  A    between atoms: _55  and  _58
REMARK   26  A    between atoms: _58  and  _59
REMARK   27  A    between atoms: _64  and  _65
REMARK   28  A    between atoms: _67  and  _69
REMARK   29  A    between atoms: _69  and  _70
REMARK   30  A    between atoms: _69  and  _72
REMARK   31  A    between atoms: _72  and  _73
REMARK   32  A    between atoms: _78  and  _80
REMARK   33  A    between atoms: _80  and  _81
REMARK   34  A    between atoms: _80  and  _83
REMARK   35  A    between atoms: _83  and  _84
REMARK   36  A    between atoms: _90  and  _92
REMARK   37  A    between atoms: _92  and  _93
REMARK   38  A    between atoms: _92  and  _95
REMARK   39  A    between atoms: _95  and  _96
REMARK   40  A    between atoms: _99  and  _101
REMARK   41  A    between atoms: _101  and  _102
REMARK   42  A    between atoms: _101  and  _104
REMARK   43  A    between atoms: _104  and  _105
REMARK   44  A    between atoms: _105  and  _106
REMARK   45  A    between atoms: _111  and  _113
REMARK   46  A    between atoms: _113  and  _114
REMARK   47  A    between atoms: _117  and  _119
REMARK   48  A    between atoms: _119  and  _120
REMARK   49  A    between atoms: _119  and  _122
REMARK   50  A    between atoms: _122  and  _123
REMARK   51  A    between atoms: _133  and  _135
REMARK   52  A    between atoms: _135  and  _136
REMARK   53  A    between atoms: _135  and  _138
REMARK   54  A    between atoms: _138  and  _139
REMARK   55  A    between atoms: _142  and  _144
REMARK   56  A    between atoms: _144  and  _145
REMARK   57  A    between atoms: _144  and  _147
REMARK   58  A    between atoms: _147  and  _148
REMARK   59  A    between atoms: _151  and  _153
REMARK   60  A    between atoms: _153  and  _154
REMARK   61  A    between atoms: _153  and  _156
REMARK   62  A    between atoms: _156  and  _157
REMARK   63  A    between atoms: _160  and  _162
REMARK   64  A    between atoms: _162  and  _163
REMARK   65  A    between atoms: _162  and  _165
REMARK   66  A    between atoms: _165  and  _166
REMARK   67  A    between atoms: _166  and  _167
REMARK   68  A    between atoms: _169  and  _171
REMARK   69  A    between atoms: _171  and  _172
REMARK   70  A    between atoms: _175  and  _177
REMARK   71  A    between atoms: _177  and  _178
REMARK   72  A    between atoms: _181  and  _183
REMARK   73  A    between atoms: _183  and  _184
REMARK   74  A    between atoms: _183  and  _186
REMARK   75  A    between atoms: _186  and  _187
REMARK   76  A    between atoms: _187  and  _188
REMARK   77  A    between atoms: _190  and  _192
REMARK   78  A    between atoms: _192  and  _193
REMARK   79  A    between atoms: _195  and  _197
REMARK   80  A    between atoms: _197  and  _198
REMARK   81  A    between atoms: _197  and  _200
REMARK   82  A    between atoms: _200  and  _201
REMARK   83  A    between atoms: _204  and  _206
REMARK   84  A    between atoms: _206  and  _207
REMARK   85  A    between atoms: _206  and  _209
REMARK   86  A    between atoms: _209  and  _210
REMARK   87  A    between atoms: _210  and  _211
REMARK   88  A    between atoms: _216  and  _218
REMARK   89  A    between atoms: _218  and  _219
REMARK   90  A    between atoms: _218  and  _221
REMARK   91  A    between atoms: _221  and  _222
REMARK   92  A    between atoms: _222  and  _223
REMARK   93  A    between atoms: _223  and  _224
REMARK   94  A    between atoms: _233  and  _235
REMARK   95  A    between atoms: _235  and  _236
REMARK   96  A    between atoms: _235  and  _238
REMARK   97  A    between atoms: _238  and  _239
REMARK   98  A    between atoms: _246  and  _247
REMARK   99  A    between atoms: _252  and  _254
REMARK  100  A    between atoms: _254  and  _255
REMARK  101  A    between atoms: _254  and  _257
REMARK  102  A    between atoms: _257  and  _258
REMARK  103  A    between atoms: _263  and  _264
REMARK  104  A    between atoms: _266  and  _268
REMARK  105  A    between atoms: _268  and  _269
REMARK  106  A    between atoms: _268  and  _271
REMARK  107  A    between atoms: _271  and  _272
REMARK  108  A    between atoms: _275  and  _277
REMARK  109  A    between atoms: _277  and  _278
REMARK  110  A    between atoms: _277  and  _280
REMARK  111  A    between atoms: _280  and  _281
REMARK  112  A    between atoms: _284  and  _286
REMARK  113  A    between atoms: _286  and  _287
REMARK  114  A    between atoms: _286  and  _289
REMARK  115  A    between atoms: _289  and  _290
REMARK  116  A    between atoms: _294  and  _295
REMARK  117  A    between atoms: _300  and  _302
REMARK  118  A    between atoms: _302  and  _303
REMARK  119  A    between atoms: _302  and  _305
REMARK  120  A    between atoms: _305  and  _306
REMARK  121  A    between atoms: _306  and  _307
REMARK  122  A    between atoms: _309  and  _311
REMARK  123  A    between atoms: _311  and  _312
REMARK  124  A    between atoms: _311  and  _314
REMARK  125  A    between atoms: _314  and  _315
REMARK  126  A    between atoms: _318  and  _320
REMARK  127  A    between atoms: _320  and  _321
REMARK  128  A    between atoms: _320  and  _323
REMARK  129  A    between atoms: _323  and  _324
REMARK  130  A    between atoms: _324  and  _325
REMARK  131  A    between atoms: _330  and  _332
REMARK  132  A    between atoms: _332  and  _333
REMARK  133  A    between atoms: _336  and  _338
REMARK  134  A    between atoms: _338  and  _339
REMARK  135  A    between atoms: _341  and  _343
REMARK  136  A    between atoms: _343  and  _344
REMARK  137  A    between atoms: _343  and  _346
REMARK  138  A    between atoms: _346  and  _347
REMARK  139  A    between atoms: _350  and  _352
REMARK  140  A    between atoms: _352  and  _353
REMARK  141  A    between atoms: _352  and  _355
REMARK  142  A    between atoms: _355  and  _356
REMARK  143  A    between atoms: _358  and  _360
REMARK  144  A    between atoms: _360  and  _361
REMARK  145  A    between atoms: _360  and  _363
REMARK  146  A    between atoms: _363  and  _364
REMARK  147  A    between atoms: _369  and  _371
REMARK  148  A    between atoms: _371  and  _372
REMARK  149  A    between atoms: _371  and  _374
REMARK  150  A    between atoms: _374  and  _375
REMARK  151  A    between atoms: _375  and  _376
REMARK  152  A    between atoms: _379  and  _381
REMARK  153  A    between atoms: _381  and  _382
REMARK  154  A    between atoms: _385  and  _387
REMARK  155  A    between atoms: _387  and  _388
REMARK  156  A    between atoms: _387  and  _390
REMARK  157  A    between atoms: _390  and  _391
REMARK  158  A    between atoms: _397  and  _399
REMARK  159  A    between atoms: _399  and  _400
REMARK  160  A    between atoms: _399  and  _402
REMARK  161  A    between atoms: _402  and  _403
REMARK  162  A    between atoms: _406  and  _408
REMARK  163  A    between atoms: _408  and  _409
REMARK  164  A    between atoms: _408  and  _411
REMARK  165  A    between atoms: _411  and  _412
REMARK  166  A    between atoms: _415  and  _417
REMARK  167  A    between atoms: _417  and  _418
REMARK  168  A    between atoms: _417  and  _420
REMARK  169  A    between atoms: _420  and  _421
REMARK  170  A    between atoms: _424  and  _426
REMARK  171  A    between atoms: _426  and  _427
REMARK  172  A    between atoms: _426  and  _429
REMARK  173  A    between atoms: _429  and  _430
REMARK  174  A    between atoms: _433  and  _435
REMARK  175  A    between atoms: _435  and  _436
REMARK  176  A    between atoms: _435  and  _438
REMARK  177  A    between atoms: _438  and  _439
REMARK  178  A    between atoms: _442  and  _444
REMARK  179  A    between atoms: _444  and  _445
REMARK  180  A    between atoms: _448  and  _450
REMARK  181  A    between atoms: _450  and  _451
REMARK  182  A    between atoms: _450  and  _453
REMARK  183  A    between atoms: _453  and  _454
REMARK  184  A    between atoms: _456  and  _458
REMARK  185  A    between atoms: _458  and  _459
REMARK  186  A    between atoms: _458  and  _461
REMARK  187  A    between atoms: _464  and  _466
REMARK  188  A    between atoms: _466  and  _467
REMARK  189  A    between atoms: _466  and  _469
REMARK  190  A    between atoms: _469  and  _470
REMARK  191  A    between atoms: _472  and  _474
REMARK  192  A    between atoms: _474  and  _475
REMARK  193  A    between atoms: _474  and  _477
REMARK  194  A    between atoms: _477  and  _478
REMARK  195  A    between atoms: _484  and  _486
REMARK  196  A    between atoms: _486  and  _487
REMARK  197  A    between atoms: _486  and  _489
REMARK  198  A    between atoms: _489  and  _490
REMARK  199  A    between atoms: _493  and  _495
REMARK  200  A    between atoms: _495  and  _496
REMARK  201  A    between atoms: _498  and  _500
REMARK  202  A    between atoms: _500  and  _501
REMARK  203  A    between atoms: _500  and  _503
REMARK  204  A    between atoms: _503  and  _504
REMARK  205  A    between atoms: _507  and  _509
REMARK  206  A    between atoms: _509  and  _510
REMARK  207  A    between atoms: _509  and  _512
REMARK  208  A    between atoms: _512  and  _513
REMARK  209  A    between atoms: _519  and  _521
REMARK  210  A    between atoms: _521  and  _522
REMARK  211  A    between atoms: _524  and  _526
REMARK  212  A    between atoms: _526  and  _527
REMARK  213  A    between atoms: _526  and  _529
REMARK  214  A    between atoms: _529  and  _530
REMARK  215  A    between atoms: _530  and  _531
REMARK  216  A    between atoms: _531  and  _532
REMARK  217  A    between atoms: _532  and  _533
REMARK  218  A    between atoms: _537  and  _539
REMARK  219  A    between atoms: _539  and  _540
REMARK  220  A    between atoms: _542  and  _544
REMARK  221  A    between atoms: _544  and  _545
REMARK  222  A    between atoms: _544  and  _547
REMARK  223  A    between atoms: _550  and  _552
REMARK  224  A    between atoms: _552  and  _553
REMARK  225  A    between atoms: _555  and  _557
REMARK  226  A    between atoms: _557  and  _558
REMARK  227  A    between atoms: _557  and  _560
REMARK  228  A    between atoms: _560  and  _561
REMARK                            x       y       z     vdW  Elec       q    Type
REMARK                         _______ _______ _______ _____ _____    ______ ____
ROOT
ATOM      1  NE  ARG A   1      12.570  -9.819  -3.997  0.00  0.00    -0.265 N 
ATOM      2  CZ  ARG A   1      13.448  -8.981  -3.469  0.00  0.00    +0.342 C 
ATOM      3  NH2 ARG A   1      13.964  -9.219  -2.268  0.00  0.00    -0.292 N 
ATOM      4 HH21 ARG A   1      13.678 -10.067  -1.738  0.00  0.00    +0.255 HD
ATOM      5 HH22 ARG A   1      14.654  -8.557  -1.858  0.00  0.00    +0.255 HD
ATOM      6  NH1 ARG A   1      13.815  -7.895  -4.130  0.00  0.00    -0.292 N 
ATOM      7 HH11 ARG A   1      14.505  -7.240  -3.711  0.00  0.00    +0.255 HD
ATOM      8 HH12 ARG A   1      13.413  -7.697  -5.069  0.00  0.00    +0.255 HD
ATOM      9  HE  ARG A   1      12.216  -9.604  -4.951  0.00  0.00    +0.259 HD
ENDROOT
BRANCH   1  10
ATOM     10  CD  ARG A   1      12.060 -11.020  -3.345  0.00  0.00    +0.174 C 
BRANCH  10  11
ATOM     11  CG  ARG A   1      10.563 -11.092  -3.519  0.00  0.00    +0.045 C 
BRANCH  11  12
ATOM     12  CB  ARG A   1       9.966 -12.284  -2.800  0.00  0.00    +0.029 C 
BRANCH  12  13
ATOM     13  CA  ARG A   1       8.443 -12.403  -2.975  0.00  0.00    +0.133 C 
BRANCH  13  14
ATOM     14  N   ARG A   1       7.753 -11.267  -2.342  0.00  0.00    -0.239 NA
ATOM     15  H   ARG A   1       8.324 -10.616  -1.767  0.00  0.00    +0.142 HD
ENDBRANCH  13  14
BRANCH  13  16
ATOM     16  C   ARG A   1       7.948 -13.754  -2.443  0.00  0.00    +0.224 C 
ATOM     17  O   ARG A   1       7.764 -14.681  -3.228  0.00  0.00    -0.287 OA
ENDBRANCH  13  16
ENDBRANCH  12  13
ENDBRANCH  11  12
ENDBRANCH  10  11
ENDBRANCH   1  10
TORSDOF 6
REMARK  Name = ../refined-set-2016/4pox/4pox_pocket.pdb
REMARK  228 active torsions:
REMARK  status: ('A' for Active; 'I' for Inactive)
REMARK    1  A    between atoms: _1  and  _3
REMARK    2  A    between atoms: _3  and  _4
REMARK    3  A    between atoms: _3  and  _6
REMARK    4  A    between atoms: _6  and  _7
REMARK    5  A    between atoms: _10  and  _12
REMARK    6  A    between atoms: _12  and  _13
REMARK    7  A    between atoms: _12  and  _15
REMARK    8  A    between atoms: _15  and  _16
REMARK    9  A    between atoms: _16  and  _17
REMARK   10  A    between atoms: _20  and  _22
REMARK   11  A    between atoms: _22  and  _23
REMARK   12  A    between atoms: _25  and  _27
REMARK   13  A    between atoms: _27  and  _28
REMARK   14  A    between atoms: _27  and  _30
REMARK   15  A    between atoms: _30  and  _31
REMARK   16  A    between atoms: _33  and  _35
REMARK   17  A    between atoms: _35  and  _36
REMARK   18  A    between atoms: _35  and  _38
REMARK   19  A    between atoms: _38  and  _39
REMARK   20  A    between atoms: _44  and  _45
REMARK   21  A    between atoms: _47  and  _49
REMARK   22  A    between atoms: _49  and  _50
REMARK   23  A    between atoms: _53  and  _55
REMARK   24  A    between atoms: _55  and  _56
REMARK   25  A    between atoms: _55  and  _58
REMARK   26  A    between atoms: _58  and  _59
REMARK   27  A    between atoms: _64  and  _65
REMARK   28  A    between atoms: _67  and  _69
REMARK   29  A    between atoms: _69  and  _70
REMARK   30  A    between atoms: _69  and  _72
REMARK   31  A    between atoms: _72  and  _73
REMARK   32  A    between atoms: _78  and  _80
REMARK   33  A    between atoms: _80  and  _81
REMARK   34  A    between atoms: _80  and  _83
REMARK   35  A    between atoms: _83  and  _84
REMARK   36  A    between atoms: _90  and  _92
REMARK   37  A    between atoms: _92  and  _93
REMARK   38  A    between atoms: _92  and  _95
REMARK   39  A    between atoms: _95  and  _96
REMARK   40  A    between atoms: _99  and  _101
REMARK   41  A    between atoms: _101  and  _102
REMARK   42  A    between atoms: _101  and  _104
REMARK   43  A    between atoms: _104  and  _105
REMARK   44  A    between atoms: _105  and  _106
REMARK   45  A    between atoms: _111  and  _113
REMARK   46  A    between atoms: _113  and  _114
REMARK   47  A    between atoms: _117  and  _119
REMARK   48  A    between atoms: _119  and  _120
REMARK   49  A    between atoms: _119  and  _122
REMARK   50  A    between atoms: _122  and  _123
REMARK   51  A    between atoms: _133  and  _135
REMARK   52  A    between atoms: _135  and  _136
REMARK   53  A    between atoms: _135  and  _138
REMARK   54  A    between atoms: _138  and  _139
REMARK   55  A    between atoms: _142  and  _144
REMARK   56  A    between atoms: _144  and  _145
REMARK   57  A    between atoms: _144  and  _147
REMARK   58  A    between atoms: _147  and  _148
REMARK   59  A    between atoms: _151  and  _153
REMARK   60  A    between atoms: _153  and  _154
REMARK   61  A    between atoms: _153  and  _156
REMARK   62  A    between atoms: _156  and  _157
REMARK   63  A    between atoms: _160  and  _162
REMARK   64  A    between atoms: _162  and  _163
REMARK   65  A    between atoms: _162  and  _165
REMARK   66  A    between atoms: _165  and  _166
REMARK   67  A    between atoms: _166  and  _167
REMARK   68  A    between atoms: _169  and  _171
REMARK   69  A    between atoms: _171  and  _172
REMARK   70  A    between atoms: _175  and  _177
REMARK   71  A    between atoms: _177  and  _178
REMARK   72  A    between atoms: _181  and  _183
REMARK   73  A    between atoms: _183  and  _184
REMARK   74  A    between atoms: _183  and  _186
REMARK   75  A    between atoms: _186  and  _187
REMARK   76  A    between atoms: _187  and  _188
REMARK   77  A    between atoms: _190  and  _192
REMARK   78  A    between atoms: _192  and  _193
REMARK   79  A    between atoms: _195  and  _197
REMARK   80  A    between atoms: _197  and  _198
REMARK   81  A    between atoms: _197  and  _200
REMARK   82  A    between atoms: _200  and  _201
REMARK   83  A    between atoms: _204  and  _206
REMARK   84  A    between atoms: _206  and  _207
REMARK   85  A    between atoms: _206  and  _209
REMARK   86  A    between atoms: _209  and  _210
REMARK   87  A    between atoms: _210  and  _211
REMARK   88  A    between atoms: _216  and  _218
REMARK   89  A    between atoms: _218  and  _219
REMARK   90  A    between atoms: _218  and  _221
REMARK   91  A    between atoms: _221  and  _222
REMARK   92  A    between atoms: _222  and  _223
REMARK   93  A    between atoms: _223  and  _224
REMARK   94  A    between atoms: _233  and  _235
REMARK   95  A    between atoms: _235  and  _236
REMARK   96  A    between atoms: _235  and  _238
REMARK   97  A    between atoms: _238  and  _239
REMARK   98  A    between atoms: _246  and  _247
REMARK   99  A    between atoms: _252  and  _254
REMARK  100  A    between atoms: _254  and  _255
REMARK  101  A    between atoms: _254  and  _257
REMARK  102  A    between atoms: _257  and  _258
REMARK  103  A    between atoms: _263  and  _264
REMARK  104  A    between atoms: _266  and  _268
REMARK  105  A    between atoms: _268  and  _269
REMARK  106  A    between atoms: _268  and  _271
REMARK  107  A    between atoms: _271  and  _272
REMARK  108  A    between atoms: _275  and  _277
REMARK  109  A    between atoms: _277  and  _278
REMARK  110  A    between atoms: _277  and  _280
REMARK  111  A    between atoms: _280  and  _281
REMARK  112  A    between atoms: _284  and  _286
REMARK  113  A    between atoms: _286  and  _287
REMARK  114  A    between atoms: _286  and  _289
REMARK  115  A    between atoms: _289  and  _290
REMARK  116  A    between atoms: _294  and  _295
REMARK  117  A    between atoms: _300  and  _302
REMARK  118  A    between atoms: _302  and  _303
REMARK  119  A    between atoms: _302  and  _305
REMARK  120  A    between atoms: _305  and  _306
REMARK  121  A    between atoms: _306  and  _307
REMARK  122  A    between atoms: _309  and  _311
REMARK  123  A    between atoms: _311  and  _312
REMARK  124  A    between atoms: _311  and  _314
REMARK  125  A    between atoms: _314  and  _315
REMARK  126  A    between atoms: _318  and  _320
REMARK  127  A    between atoms: _320  and  _321
REMARK  128  A    between atoms: _320  and  _323
REMARK  129  A    between atoms: _323  and  _324
REMARK  130  A    between atoms: _324  and  _325
REMARK  131  A    between atoms: _330  and  _332
REMARK  132  A    between atoms: _332  and  _333
REMARK  133  A    between atoms: _336  and  _338
REMARK  134  A    between atoms: _338  and  _339
REMARK  135  A    between atoms: _341  and  _343
REMARK  136  A    between atoms: _343  and  _344
REMARK  137  A    between atoms: _343  and  _346
REMARK  138  A    between atoms: _346  and  _347
REMARK  139  A    between atoms: _350  and  _352
REMARK  140  A    between atoms: _352  and  _353
REMARK  141  A    between atoms: _352  and  _355
REMARK  142  A    between atoms: _355  and  _356
REMARK  143  A    between atoms: _358  and  _360
REMARK  144  A    between atoms: _360  and  _361
REMARK  145  A    between atoms: _360  and  _363
REMARK  146  A    between atoms: _363  and  _364
REMARK  147  A    between atoms: _369  and  _371
REMARK  148  A    between atoms: _371  and  _372
REMARK  149  A    between atoms: _371  and  _374
REMARK  150  A    between atoms: _374  and  _375
REMARK  151  A    between atoms: _375  and  _376
REMARK  152  A    between atoms: _379  and  _381
REMARK  153  A    between atoms: _381  and  _382
REMARK  154  A    between atoms: _385  and  _387
REMARK  155  A    between atoms: _387  and  _388
REMARK  156  A    between atoms: _387  and  _390
REMARK  157  A    between atoms: _390  and  _391
REMARK  158  A    between atoms: _397  and  _399
REMARK  159  A    between atoms: _399  and  _400
REMARK  160  A    between atoms: _399  and  _402
REMARK  161  A    between atoms: _402  and  _403
REMARK  162  A    between atoms: _406  and  _408
REMARK  163  A    between atoms: _408  and  _409
REMARK  164  A    between atoms: _408  and  _411
REMARK  165  A    between atoms: _411  and  _412
REMARK  166  A    between atoms: _415  and  _417
REMARK  167  A    between atoms: _417  and  _418
REMARK  168  A    between atoms: _417  and  _420
REMARK  169  A    between atoms: _420  and  _421
REMARK  170  A    between atoms: _424  and  _426
REMARK  171  A    between atoms: _426  and  _427
REMARK  172  A    between atoms: _426  and  _429
REMARK  173  A    between atoms: _429  and  _430
REMARK  174  A    between atoms: _433  and  _435
REMARK  175  A    between atoms: _435  and  _436
REMARK  176  A    between atoms: _435  and  _438
REMARK  177  A    between atoms: _438  and  _439
REMARK  178  A    between atoms: _442  and  _444
REMARK  179  A    between atoms: _444  and  _445
REMARK  180  A    between atoms: _448  and  _450
REMARK  181  A    between atoms: _450  and  _451
REMARK  182  A    between atoms: _450  and  _453
REMARK  183  A    between atoms: _453  and  _454
REMARK  184  A    between atoms: _456  and  _458
REMARK  185  A    between atoms: _458  and  _459
REMARK  186  A    between atoms: _458  and  _461
REMARK  187  A    between atoms: _464  and  _466
REMARK  188  A    between atoms: _466  and  _467
REMARK  189  A    between atoms: _466  and  _469
REMARK  190  A    between atoms: _469  and  _470
REMARK  191  A    between atoms: _472  and  _474
REMARK  192  A    between atoms: _474  and  _475
REMARK  193  A    between atoms: _474  and  _477
REMARK  194  A    between atoms: _477  and  _478
REMARK  195  A    between atoms: _484  and  _486
REMARK  196  A    between atoms: _486  and  _487
REMARK  197  A    between atoms: _486  and  _489
REMARK  198  A    between atoms: _489  and  _490
REMARK  199  A    between atoms: _493  and  _495
REMARK  200  A    between atoms: _495  and  _496
REMARK  201  A    between atoms: _498  and  _500
REMARK  202  A    between atoms: _500  and  _501
REMARK  203  A    between atoms: _500  and  _503
REMARK  204  A    between atoms: _503  and  _504
REMARK  205  A    between atoms: _507  and  _509
REMARK  206  A    between atoms: _509  and  _510
REMARK  207  A    between atoms: _509  and  _512
REMARK  208  A    between atoms: _512  and  _513
REMARK  209  A    between atoms: _519  and  _521
REMARK  210  A    between atoms: _521  and  _522
REMARK  211  A    between atoms: _524  and  _526
REMARK  212  A    between atoms: _526  and  _527
REMARK  213  A    between atoms: _526  and  _529
REMARK  214  A    between atoms: _529  and  _530
REMARK  215  A    between atoms: _530  and  _531
REMARK  216  A    between atoms: _531  and  _532
REMARK  217  A    between atoms: _532  and  _533
REMARK  218  A    between atoms: _537  and  _539
REMARK  219  A    between atoms: _539  and  _540
REMARK  220  A    between atoms: _542  and  _544
REMARK  221  A    between atoms: _544  and  _545
REMARK  222  A    between atoms: _544  and  _547
REMARK  223  A    between atoms: _550  and  _552
REMARK  224  A    between atoms: _552  and  _553
REMARK  225  A    between atoms: _555  and  _557
REMARK  226  A    between atoms: _557  and  _558
REMARK  227  A    between atoms: _557  and  _560
REMARK  228  A    between atoms: _560  and  _561
REMARK                            x       y       z     vdW  Elec       q    Type
REMARK                         _______ _______ _______ _____ _____    ______ ____
ROOT
ATOM      1  CB  PHE A   1      12.963 -17.934   1.176  0.00  0.00    +0.051 C 
ENDROOT
BRANCH   1   2
ATOM      2  CG  PHE A   1      12.895 -16.810   0.178  0.00  0.00    -0.020 A 
ATOM      3  CD2 PHE A   1      11.671 -16.220  -0.151  0.00  0.00    -0.004 A 
ATOM      4  CE2 PHE A   1      11.611 -15.178  -1.082  0.00  0.00    -0.000 A 
ATOM      5  CZ  PHE A   1      12.772 -14.732  -1.693  0.00  0.00    -0.000 A 
ATOM      6  CE1 PHE A   1      13.989 -15.312  -1.386  0.00  0.00    -0.000 A 
ATOM      7  CD1 PHE A   1      14.053 -16.338  -0.444  0.00  0.00    -0.004 A 
ENDBRANCH   1   2
BRANCH   1   8
ATOM      8  CA  PHE A   1      12.915 -19.337   0.535  0.00  0.00    +0.137 C 
BRANCH   8   9
ATOM      9  N   PHE A   1      11.562 -19.718   0.178  0.00  0.00    -0.239 NA
ATOM     10  H   PHE A   1      10.881 -19.952   0.929  0.00  0.00    +0.142 HD
ENDBRANCH   8   9
BRANCH   8  11
ATOM     11  C   PHE A   1      13.525 -20.333   1.470  0.00  0.00    +0.224 C 
ATOM     12  O   PHE A   1      12.830 -20.958   2.276  0.00  0.00    -0.287 OA
ENDBRANCH   8  11
ENDBRANCH   1   8
TORSDOF 4
REMARK  Name = ../refined-set-2016/4pox/4pox_pocket.pdb
REMARK  228 active torsions:
REMARK  status: ('A' for Active; 'I' for Inactive)
REMARK    1  A    between atoms: _1  and  _3
REMARK    2  A    between atoms: _3  and  _4
REMARK    3  A    between atoms: _3  and  _6
REMARK    4  A    between atoms: _6  and  _7
REMARK    5  A    between atoms: _10  and  _12
REMARK    6  A    between atoms: _12  and  _13
REMARK    7  A    between atoms: _12  and  _15
REMARK    8  A    between atoms: _15  and  _16
REMARK    9  A    between atoms: _16  and  _17
REMARK   10  A    between atoms: _20  and  _22
REMARK   11  A    between atoms: _22  and  _23
REMARK   12  A    between atoms: _25  and  _27
REMARK   13  A    between atoms: _27  and  _28
REMARK   14  A    between atoms: _27  and  _30
REMARK   15  A    between atoms: _30  and  _31
REMARK   16  A    between atoms: _33  and  _35
REMARK   17  A    between atoms: _35  and  _36
REMARK   18  A    between atoms: _35  and  _38
REMARK   19  A    between atoms: _38  and  _39
REMARK   20  A    between atoms: _44  and  _45
REMARK   21  A    between atoms: _47  and  _49
REMARK   22  A    between atoms: _49  and  _50
REMARK   23  A    between atoms: _53  and  _55
REMARK   24  A    between atoms: _55  and  _56
REMARK   25  A    between atoms: _55  and  _58
REMARK   26  A    between atoms: _58  and  _59
REMARK   27  A    between atoms: _64  and  _65
REMARK   28  A    between atoms: _67  and  _69
REMARK   29  A    between atoms: _69  and  _70
REMARK   30  A    between atoms: _69  and  _72
REMARK   31  A    between atoms: _72  and  _73
REMARK   32  A    between atoms: _78  and  _80
REMARK   33  A    between atoms: _80  and  _81
REMARK   34  A    between atoms: _80  and  _83
REMARK   35  A    between atoms: _83  and  _84
REMARK   36  A    between atoms: _90  and  _92
REMARK   37  A    between atoms: _92  and  _93
REMARK   38  A    between atoms: _92  and  _95
REMARK   39  A    between atoms: _95  and  _96
REMARK   40  A    between atoms: _99  and  _101
REMARK   41  A    between atoms: _101  and  _102
REMARK   42  A    between atoms: _101  and  _104
REMARK   43  A    between atoms: _104  and  _105
REMARK   44  A    between atoms: _105  and  _106
REMARK   45  A    between atoms: _111  and  _113
REMARK   46  A    between atoms: _113  and  _114
REMARK   47  A    between atoms: _117  and  _119
REMARK   48  A    between atoms: _119  and  _120
REMARK   49  A    between atoms: _119  and  _122
REMARK   50  A    between atoms: _122  and  _123
REMARK   51  A    between atoms: _133  and  _135
REMARK   52  A    between atoms: _135  and  _136
REMARK   53  A    between atoms: _135  and  _138
REMARK   54  A    between atoms: _138  and  _139
REMARK   55  A    between atoms: _142  and  _144
REMARK   56  A    between atoms: _144  and  _145
REMARK   57  A    between atoms: _144  and  _147
REMARK   58  A    between atoms: _147  and  _148
REMARK   59  A    between atoms: _151  and  _153
REMARK   60  A    between atoms: _153  and  _154
REMARK   61  A    between atoms: _153  and  _156
REMARK   62  A    between atoms: _156  and  _157
REMARK   63  A    between atoms: _160  and  _162
REMARK   64  A    between atoms: _162  and  _163
REMARK   65  A    between atoms: _162  and  _165
REMARK   66  A    between atoms: _165  and  _166
REMARK   67  A    between atoms: _166  and  _167
REMARK   68  A    between atoms: _169  and  _171
REMARK   69  A    between atoms: _171  and  _172
REMARK   70  A    between atoms: _175  and  _177
REMARK   71  A    between atoms: _177  and  _178
REMARK   72  A    between atoms: _181  and  _183
REMARK   73  A    between atoms: _183  and  _184
REMARK   74  A    between atoms: _183  and  _186
REMARK   75  A    between atoms: _186  and  _187
REMARK   76  A    between atoms: _187  and  _188
REMARK   77  A    between atoms: _190  and  _192
REMARK   78  A    between atoms: _192  and  _193
REMARK   79  A    between atoms: _195  and  _197
REMARK   80  A    between atoms: _197  and  _198
REMARK   81  A    between atoms: _197  and  _200
REMARK   82  A    between atoms: _200  and  _201
REMARK   83  A    between atoms: _204  and  _206
REMARK   84  A    between atoms: _206  and  _207
REMARK   85  A    between atoms: _206  and  _209
REMARK   86  A    between atoms: _209  and  _210
REMARK   87  A    between atoms: _210  and  _211
REMARK   88  A    between atoms: _216  and  _218
REMARK   89  A    between atoms: _218  and  _219
REMARK   90  A    between atoms: _218  and  _221
REMARK   91  A    between atoms: _221  and  _222
REMARK   92  A    between atoms: _222  and  _223
REMARK   93  A    between atoms: _223  and  _224
REMARK   94  A    between atoms: _233  and  _235
REMARK   95  A    between atoms: _235  and  _236
REMARK   96  A    between atoms: _235  and  _238
REMARK   97  A    between atoms: _238  and  _239
REMARK   98  A    between atoms: _246  and  _247
REMARK   99  A    between atoms: _252  and  _254
REMARK  100  A    between atoms: _254  and  _255
REMARK  101  A    between atoms: _254  and  _257
REMARK  102  A    between atoms: _257  and  _258
REMARK  103  A    between atoms: _263  and  _264
REMARK  104  A    between atoms: _266  and  _268
REMARK  105  A    between atoms: _268  and  _269
REMARK  106  A    between atoms: _268  and  _271
REMARK  107  A    between atoms: _271  and  _272
REMARK  108  A    between atoms: _275  and  _277
REMARK  109  A    between atoms: _277  and  _278
REMARK  110  A    between atoms: _277  and  _280
REMARK  111  A    between atoms: _280  and  _281
REMARK  112  A    between atoms: _284  and  _286
REMARK  113  A    between atoms: _286  and  _287
REMARK  114  A    between atoms: _286  and  _289
REMARK  115  A    between atoms: _289  and  _290
REMARK  116  A    between atoms: _294  and  _295
REMARK  117  A    between atoms: _300  and  _302
REMARK  118  A    between atoms: _302  and  _303
REMARK  119  A    between atoms: _302  and  _305
REMARK  120  A    between atoms: _305  and  _306
REMARK  121  A    between atoms: _306  and  _307
REMARK  122  A    between atoms: _309  and  _311
REMARK  123  A    between atoms: _311  and  _312
REMARK  124  A    between atoms: _311  and  _314
REMARK  125  A    between atoms: _314  and  _315
REMARK  126  A    between atoms: _318  and  _320
REMARK  127  A    between atoms: _320  and  _321
REMARK  128  A    between atoms: _320  and  _323
REMARK  129  A    between atoms: _323  and  _324
REMARK  130  A    between atoms: _324  and  _325
REMARK  131  A    between atoms: _330  and  _332
REMARK  132  A    between atoms: _332  and  _333
REMARK  133  A    between atoms: _336  and  _338
REMARK  134  A    between atoms: _338  and  _339
REMARK  135  A    between atoms: _341  and  _343
REMARK  136  A    between atoms: _343  and  _344
REMARK  137  A    between atoms: _343  and  _346
REMARK  138  A    between atoms: _346  and  _347
REMARK  139  A    between atoms: _350  and  _352
REMARK  140  A    between atoms: _352  and  _353
REMARK  141  A    between atoms: _352  and  _355
REMARK  142  A    between atoms: _355  and  _356
REMARK  143  A    between atoms: _358  and  _360
REMARK  144  A    between atoms: _360  and  _361
REMARK  145  A    between atoms: _360  and  _363
REMARK  146  A    between atoms: _363  and  _364
REMARK  147  A    between atoms: _369  and  _371
REMARK  148  A    between atoms: _371  and  _372
REMARK  149  A    between atoms: _371  and  _374
REMARK  150  A    between atoms: _374  and  _375
REMARK  151  A    between atoms: _375  and  _376
REMARK  152  A    between atoms: _379  and  _381
REMARK  153  A    between atoms: _381  and  _382
REMARK  154  A    between atoms: _385  and  _387
REMARK  155  A    between atoms: _387  and  _388
REMARK  156  A    between atoms: _387  and  _390
REMARK  157  A    between atoms: _390  and  _391
REMARK  158  A    between atoms: _397  and  _399
REMARK  159  A    between atoms: _399  and  _400
REMARK  160  A    between atoms: _399  and  _402
REMARK  161  A    between atoms: _402  and  _403
REMARK  162  A    between atoms: _406  and  _408
REMARK  163  A    between atoms: _408  and  _409
REMARK  164  A    between atoms: _408  and  _411
REMARK  165  A    between atoms: _411  and  _412
REMARK  166  A    between atoms: _415  and  _417
REMARK  167  A    between atoms: _417  and  _418
REMARK  168  A    between atoms: _417  and  _420
REMARK  169  A    between atoms: _420  and  _421
REMARK  170  A    between atoms: _424  and  _426
REMARK  171  A    between atoms: _426  and  _427
REMARK  172  A    between atoms: _426  and  _429
REMARK  173  A    between atoms: _429  and  _430
REMARK  174  A    between atoms: _433  and  _435
REMARK  175  A    between atoms: _435  and  _436
REMARK  176  A    between atoms: _435  and  _438
REMARK  177  A    between atoms: _438  and  _439
REMARK  178  A    between atoms: _442  and  _444
REMARK  179  A    between atoms: _444  and  _445
REMARK  180  A    between atoms: _448  and  _450
REMARK  181  A    between atoms: _450  and  _451
REMARK  182  A    between atoms: _450  and  _453
REMARK  183  A    between atoms: _453  and  _454
REMARK  184  A    between atoms: _456  and  _458
REMARK  185  A    between atoms: _458  and  _459
REMARK  186  A    between atoms: _458  and  _461
REMARK  187  A    between atoms: _464  and  _466
REMARK  188  A    between atoms: _466  and  _467
REMARK  189  A    between atoms: _466  and  _469
REMARK  190  A    between atoms: _469  and  _470
REMARK  191  A    between atoms: _472  and  _474
REMARK  192  A    between atoms: _474  and  _475
REMARK  193  A    between atoms: _474  and  _477
REMARK  194  A    between atoms: _477  and  _478
REMARK  195  A    between atoms: _484  and  _486
REMARK  196  A    between atoms: _486  and  _487
REMARK  197  A    between atoms: _486  and  _489
REMARK  198  A    between atoms: _489  and  _490
REMARK  199  A    between atoms: _493  and  _495
REMARK  200  A    between atoms: _495  and  _496
REMARK  201  A    between atoms: _498  and  _500
REMARK  202  A    between atoms: _500  and  _501
REMARK  203  A    between atoms: _500  and  _503
REMARK  204  A    between atoms: _503  and  _504
REMARK  205  A    between atoms: _507  and  _509
REMARK  206  A    between atoms: _509  and  _510
REMARK  207  A    between atoms: _509  and  _512
REMARK  208  A    between atoms: _512  and  _513
REMARK  209  A    between atoms: _519  and  _521
REMARK  210  A    between atoms: _521  and  _522
REMARK  211  A    between atoms: _524  and  _526
REMARK  212  A    between atoms: _526  and  _527
REMARK  213  A    between atoms: _526  and  _529
REMARK  214  A    between atoms: _529  and  _530
REMARK  215  A    between atoms: _530  and  _531
REMARK  216  A    between atoms: _531  and  _532
REMARK  217  A    between atoms: _532  and  _533
REMARK  218  A    between atoms: _537  and  _539
REMARK  219  A    between atoms: _539  and  _540
REMARK  220  A    between atoms: _542  and  _544
REMARK  221  A    between atoms: _544  and  _545
REMARK  222  A    between atoms: _544  and  _547
REMARK  223  A    between atoms: _550  and  _552
REMARK  224  A    between atoms: _552  and  _553
REMARK  225  A    between atoms: _555  and  _557
REMARK  226  A    between atoms: _557  and  _558
REMARK  227  A    between atoms: _557  and  _560
REMARK  228  A    between atoms: _560  and  _561
REMARK                            x       y       z     vdW  Elec       q    Type
REMARK                         _______ _______ _______ _____ _____    ______ ____
ROOT
ATOM      1  CA  LEU A   4      21.539 -10.796   7.980  0.00  0.00    +0.149 C 
ENDROOT
BRANCH   1   2
ATOM      2  C   LEU A   4      22.229  -9.445   7.995  0.00  0.00    +0.241 C 
ATOM      3  O   LEU A   4      23.368  -9.340   8.445  0.00  0.00    -0.273 OA
ATOM      4  N   THR A   5      21.555  -8.411   7.469  0.00  0.00    -0.295 N 
ATOM      5  H   THR A   5      20.581  -8.567   7.138  0.00  0.00    +0.150 HD
BRANCH   4   6
ATOM      6  CA  THR A   5      22.133  -7.071   7.341  0.00  0.00    +0.176 C 
BRANCH   6   7
ATOM      7  C   THR A   5      21.075  -5.957   7.372  0.00  0.00    +0.246 C 
ATOM      8  N   PRO A   6      21.363  -4.808   8.036  0.00  0.00    -0.272 N 
ATOM      9  CD  PRO A   6      22.570  -4.452   8.813  0.00  0.00    +0.094 C 
ATOM     10  CG  PRO A   6      22.080  -3.425   9.741  0.00  0.00    +0.024 C 
ATOM     11  CB  PRO A   6      20.797  -2.852   9.214  0.00  0.00    +0.031 C 
ATOM     12  CA  PRO A   6      20.417  -3.692   7.989  0.00  0.00    +0.152 C 
ATOM     13  O   THR A   5      20.023  -6.107   6.750  0.00  0.00    -0.273 OA
BRANCH  12  14
ATOM     14  C   PRO A   6      20.535  -2.884   6.688  0.00  0.00    +0.241 C 
ATOM     15  N   MET A   7      19.606  -1.950   6.499  0.00  0.00    -0.297 N 
ATOM     16  H   MET A   7      18.873  -1.844   7.230  0.00  0.00    +0.150 HD
ATOM     17  O   PRO A   6      21.443  -3.091   5.879  0.00  0.00    -0.273 OA
BRANCH  15  18
ATOM     18  CA  MET A   7      19.540  -1.061   5.338  0.00  0.00    +0.149 C 
BRANCH  18  19
ATOM     19  C   MET A   7      19.855   0.345   5.787  0.00  0.00    +0.241 C 
ATOM     20  O   MET A   7      19.390   0.776   6.847  0.00  0.00    -0.273 OA
ATOM     21  N   THR A   8      20.624   1.075   4.973  0.00  0.00    -0.296 N 
ATOM     22  H   THR A   8      20.974   0.647   4.092  0.00  0.00    +0.150 HD
BRANCH  21  23
ATOM     23  CA  THR A   8      20.987   2.448   5.280  0.00  0.00    +0.164 C 
BRANCH  23  24
ATOM     24  C   THR A   8      21.015   3.320   4.025  0.00  0.00    +0.229 C 
ATOM     25  O   THR A   8      20.887   2.800   2.914  0.00  0.00    -0.286 OA
ENDBRANCH  23  24
BRANCH  23  26
ATOM     26  CB  THR A   8      22.221   2.512   6.212  0.00  0.00    +0.136 C 
ATOM     27  CG2 THR A   8      23.553   2.378   5.475  0.00  0.00    +0.034 C 
BRANCH  26  28
ATOM     28  OG1 THR A   8      22.173   3.736   6.930  0.00  0.00    -0.382 OA
ATOM     29  HG1 THR A   8      22.956   3.795   7.533  0.00  0.00    +0.210 HD
ENDBRANCH  26  28
ENDBRANCH  23  26
ENDBRANCH  21  23
ENDBRANCH  18  19
BRANCH  18  30
ATOM     30  CB  MET A   7      18.142  -1.085   4.715  0.00  0.00    +0.041 C 
BRANCH  30  31
ATOM     31  CG  MET A   7      17.655  -2.470   4.391  0.00  0.00    +0.060 C 
BRANCH  31  32
ATOM     32  SD  MET A   7      18.442  -3.162   2.942  0.00  0.00    -0.139 S 
ATOM     33  CE  MET A   7      17.570  -4.705   2.854  0.00  0.00    +0.069 C 
ENDBRANCH  31  32
ENDBRANCH  30  31
ENDBRANCH  18  30
ENDBRANCH  15  18
ENDBRANCH  12  14
ENDBRANCH   6   7
BRANCH   6  34
ATOM     34  CB  THR A   5      23.039  -6.971   6.056  0.00  0.00    +0.137 C 
ATOM     35  CG2 THR A   5      22.325  -7.418   4.776  0.00  0.00    +0.034 C 
BRANCH  34  36
ATOM     36  OG1 THR A   5      23.534  -5.637   5.890  0.00  0.00    -0.382 OA
ATOM     37  HG1 THR A   5      22.772  -5.013   5.795  0.00  0.00    +0.210 HD
ENDBRANCH  34  36
ENDBRANCH   6  34
ENDBRANCH   4   6
ENDBRANCH   1   2
BRANCH   1  39
ATOM     38  C   LEU A   3      22.062 -12.514   6.276  0.00  0.00    +0.241 C 
ATOM     39  N   LEU A   4      22.409 -11.779   7.338  0.00  0.00    -0.297 N 
ATOM     40  H   LEU A   4      23.361 -11.916   7.733  0.00  0.00    +0.150 HD
ATOM     41  O   LEU A   3      20.947 -12.458   5.757  0.00  0.00    -0.273 OA
BRANCH  38  42
ATOM     42  CA  LEU A   3      23.117 -13.494   5.744  0.00  0.00    +0.149 C 
BRANCH  42  45
ATOM     43  C   TYR A   2      23.137 -15.957   5.369  0.00  0.00    +0.241 C 
ATOM     44  O   TYR A   2      24.345 -16.077   5.551  0.00  0.00    -0.273 OA
ATOM     45  N   LEU A   3      22.492 -14.776   5.432  0.00  0.00    -0.297 N 
ATOM     46  H   LEU A   3      21.469 -14.778   5.244  0.00  0.00    +0.150 HD
BRANCH  43  47
ATOM     47  CA  TYR A   2      22.294 -17.187   5.067  0.00  0.00    +0.153 C 
BRANCH  47  50
ATOM     48  C   PRO A   1      20.032 -17.302   5.960  0.00  0.00    +0.239 C 
ATOM     49  O   PRO A   1      20.415 -18.007   6.887  0.00  0.00    -0.274 OA
ATOM     50  N   TYR A   2      20.865 -16.878   5.000  0.00  0.00    -0.297 N 
ATOM     51  H   TYR A   2      20.493 -16.325   4.201  0.00  0.00    +0.150 HD
BRANCH  48  56
ATOM     52  N   PRO A   1      17.590 -17.938   6.249  0.00  0.00    -0.210 NA
ATOM     53  CD  PRO A   1      16.772 -17.548   7.413  0.00  0.00    +0.089 C 
ATOM     54  CG  PRO A   1      17.027 -16.094   7.560  0.00  0.00    +0.021 C 
ATOM     55  CB  PRO A   1      18.255 -15.726   6.838  0.00  0.00    +0.028 C 
ATOM     56  CA  PRO A   1      18.554 -16.881   5.868  0.00  0.00    +0.149 C 
ENDBRANCH  48  56
ENDBRANCH  47  50
BRANCH  47  57
ATOM     57  CB  TYR A   2      22.790 -17.948   3.835  0.00  0.00    +0.055 C 
BRANCH  57  58
ATOM     58  CG  TYR A   2      22.593 -17.268   2.495  0.00  0.00    -0.020 A 
ATOM     59  CD2 TYR A   2      23.439 -16.234   2.082  0.00  0.00    -0.001 A 
ATOM     60  CE2 TYR A   2      23.342 -15.684   0.804  0.00  0.00    +0.036 A 
ATOM     61  CZ  TYR A   2      22.394 -16.172  -0.082  0.00  0.00    +0.134 A 
ATOM     62  CE1 TYR A   2      21.549 -17.200   0.302  0.00  0.00    +0.036 A 
ATOM     63  CD1 TYR A   2      21.673 -17.761   1.573  0.00  0.00    -0.001 A 
BRANCH  61  64
ATOM     64  OH  TYR A   2      22.270 -15.626  -1.334  0.00  0.00    -0.506 OA
ATOM     65  HH  TYR A   2      23.125 -15.727  -1.823  0.00  0.00    +0.292 HD
ENDBRANCH  61  64
ENDBRANCH  57  58
ENDBRANCH  47  57
ENDBRANCH  43  47
ENDBRANCH  42  45
BRANCH  42  66
ATOM     66  CB  LEU A   3      23.845 -12.912   4.507  0.00  0.00    +0.029 C 
BRANCH  66  67
ATOM     67  CG  LEU A   3      25.104 -12.091   4.798  0.00  0.00    +0.002 C 
ATOM     68  CD2 LEU A   3      26.288 -12.980   5.201  0.00  0.00    +0.000 C 
ATOM     69  CD1 LEU A   3      25.492 -11.286   3.611  0.00  0.00    +0.000 C 
ENDBRANCH  66  67
ENDBRANCH  42  66
ENDBRANCH  38  42
ENDBRANCH   1  39
BRANCH   1  70
ATOM     70  CB  LEU A   4      21.172 -11.239   9.405  0.00  0.00    +0.029 C 
BRANCH  70  71
ATOM     71  CG  LEU A   4      20.120 -12.347   9.500  0.00  0.00    +0.002 C 
ATOM     72  CD2 LEU A   4      20.142 -12.975  10.860  0.00  0.00    +0.000 C 
ATOM     73  CD1 LEU A   4      18.717 -11.820   9.203  0.00  0.00    +0.000 C 
ENDBRANCH  70  71
ENDBRANCH   1  70
TORSDOF 28
REMARK  Name = ../refined-set-2016/4pox/4pox_pocket.pdb
REMARK  228 active torsions:
REMARK  status: ('A' for Active; 'I' for Inactive)
REMARK    1  A    between atoms: _1  and  _3
REMARK    2  A    between atoms: _3  and  _4
REMARK    3  A    between atoms: _3  and  _6
REMARK    4  A    between atoms: _6  and  _7
REMARK    5  A    between atoms: _10  and  _12
REMARK    6  A    between atoms: _12  and  _13
REMARK    7  A    between atoms: _12  and  _15
REMARK    8  A    between atoms: _15  and  _16
REMARK    9  A    between atoms: _16  and  _17
REMARK   10  A    between atoms: _20  and  _22
REMARK   11  A    between atoms: _22  and  _23
REMARK   12  A    between atoms: _25  and  _27
REMARK   13  A    between atoms: _27  and  _28
REMARK   14  A    between atoms: _27  and  _30
REMARK   15  A    between atoms: _30  and  _31
REMARK   16  A    between atoms: _33  and  _35
REMARK   17  A    between atoms: _35  and  _36
REMARK   18  A    between atoms: _35  and  _38
REMARK   19  A    between atoms: _38  and  _39
REMARK   20  A    between atoms: _44  and  _45
REMARK   21  A    between atoms: _47  and  _49
REMARK   22  A    between atoms: _49  and  _50
REMARK   23  A    between atoms: _53  and  _55
REMARK   24  A    between atoms: _55  and  _56
REMARK   25  A    between atoms: _55  and  _58
REMARK   26  A    between atoms: _58  and  _59
REMARK   27  A    between atoms: _64  and  _65
REMARK   28  A    between atoms: _67  and  _69
REMARK   29  A    between atoms: _69  and  _70
REMARK   30  A    between atoms: _69  and  _72
REMARK   31  A    between atoms: _72  and  _73
REMARK   32  A    between atoms: _78  and  _80
REMARK   33  A    between atoms: _80  and  _81
REMARK   34  A    between atoms: _80  and  _83
REMARK   35  A    between atoms: _83  and  _84
REMARK   36  A    between atoms: _90  and  _92
REMARK   37  A    between atoms: _92  and  _93
REMARK   38  A    between atoms: _92  and  _95
REMARK   39  A    between atoms: _95  and  _96
REMARK   40  A    between atoms: _99  and  _101
REMARK   41  A    between atoms: _101  and  _102
REMARK   42  A    between atoms: _101  and  _104
REMARK   43  A    between atoms: _104  and  _105
REMARK   44  A    between atoms: _105  and  _106
REMARK   45  A    between atoms: _111  and  _113
REMARK   46  A    between atoms: _113  and  _114
REMARK   47  A    between atoms: _117  and  _119
REMARK   48  A    between atoms: _119  and  _120
REMARK   49  A    between atoms: _119  and  _122
REMARK   50  A    between atoms: _122  and  _123
REMARK   51  A    between atoms: _133  and  _135
REMARK   52  A    between atoms: _135  and  _136
REMARK   53  A    between atoms: _135  and  _138
REMARK   54  A    between atoms: _138  and  _139
REMARK   55  A    between atoms: _142  and  _144
REMARK   56  A    between atoms: _144  and  _145
REMARK   57  A    between atoms: _144  and  _147
REMARK   58  A    between atoms: _147  and  _148
REMARK   59  A    between atoms: _151  and  _153
REMARK   60  A    between atoms: _153  and  _154
REMARK   61  A    between atoms: _153  and  _156
REMARK   62  A    between atoms: _156  and  _157
REMARK   63  A    between atoms: _160  and  _162
REMARK   64  A    between atoms: _162  and  _163
REMARK   65  A    between atoms: _162  and  _165
REMARK   66  A    between atoms: _165  and  _166
REMARK   67  A    between atoms: _166  and  _167
REMARK   68  A    between atoms: _169  and  _171
REMARK   69  A    between atoms: _171  and  _172
REMARK   70  A    between atoms: _175  and  _177
REMARK   71  A    between atoms: _177  and  _178
REMARK   72  A    between atoms: _181  and  _183
REMARK   73  A    between atoms: _183  and  _184
REMARK   74  A    between atoms: _183  and  _186
REMARK   75  A    between atoms: _186  and  _187
REMARK   76  A    between atoms: _187  and  _188
REMARK   77  A    between atoms: _190  and  _192
REMARK   78  A    between atoms: _192  and  _193
REMARK   79  A    between atoms: _195  and  _197
REMARK   80  A    between atoms: _197  and  _198
REMARK   81  A    between atoms: _197  and  _200
REMARK   82  A    between atoms: _200  and  _201
REMARK   83  A    between atoms: _204  and  _206
REMARK   84  A    between atoms: _206  and  _207
REMARK   85  A    between atoms: _206  and  _209
REMARK   86  A    between atoms: _209  and  _210
REMARK   87  A    between atoms: _210  and  _211
REMARK   88  A    between atoms: _216  and  _218
REMARK   89  A    between atoms: _218  and  _219
REMARK   90  A    between atoms: _218  and  _221
REMARK   91  A    between atoms: _221  and  _222
REMARK   92  A    between atoms: _222  and  _223
REMARK   93  A    between atoms: _223  and  _224
REMARK   94  A    between atoms: _233  and  _235
REMARK   95  A    between atoms: _235  and  _236
REMARK   96  A    between atoms: _235  and  _238
REMARK   97  A    between atoms: _238  and  _239
REMARK   98  A    between atoms: _246  and  _247
REMARK   99  A    between atoms: _252  and  _254
REMARK  100  A    between atoms: _254  and  _255
REMARK  101  A    between atoms: _254  and  _257
REMARK  102  A    between atoms: _257  and  _258
REMARK  103  A    between atoms: _263  and  _264
REMARK  104  A    between atoms: _266  and  _268
REMARK  105  A    between atoms: _268  and  _269
REMARK  106  A    between atoms: _268  and  _271
REMARK  107  A    between atoms: _271  and  _272
REMARK  108  A    between atoms: _275  and  _277
REMARK  109  A    between atoms: _277  and  _278
REMARK  110  A    between atoms: _277  and  _280
REMARK  111  A    between atoms: _280  and  _281
REMARK  112  A    between atoms: _284  and  _286
REMARK  113  A    between atoms: _286  and  _287
REMARK  114  A    between atoms: _286  and  _289
REMARK  115  A    between atoms: _289  and  _290
REMARK  116  A    between atoms: _294  and  _295
REMARK  117  A    between atoms: _300  and  _302
REMARK  118  A    between atoms: _302  and  _303
REMARK  119  A    between atoms: _302  and  _305
REMARK  120  A    between atoms: _305  and  _306
REMARK  121  A    between atoms: _306  and  _307
REMARK  122  A    between atoms: _309  and  _311
REMARK  123  A    between atoms: _311  and  _312
REMARK  124  A    between atoms: _311  and  _314
REMARK  125  A    between atoms: _314  and  _315
REMARK  126  A    between atoms: _318  and  _320
REMARK  127  A    between atoms: _320  and  _321
REMARK  128  A    between atoms: _320  and  _323
REMARK  129  A    between atoms: _323  and  _324
REMARK  130  A    between atoms: _324  and  _325
REMARK  131  A    between atoms: _330  and  _332
REMARK  132  A    between atoms: _332  and  _333
REMARK  133  A    between atoms: _336  and  _338
REMARK  134  A    between atoms: _338  and  _339
REMARK  135  A    between atoms: _341  and  _343
REMARK  136  A    between atoms: _343  and  _344
REMARK  137  A    between atoms: _343  and  _346
REMARK  138  A    between atoms: _346  and  _347
REMARK  139  A    between atoms: _350  and  _352
REMARK  140  A    between atoms: _352  and  _353
REMARK  141  A    between atoms: _352  and  _355
REMARK  142  A    between atoms: _355  and  _356
REMARK  143  A    between atoms: _358  and  _360
REMARK  144  A    between atoms: _360  and  _361
REMARK  145  A    between atoms: _360  and  _363
REMARK  146  A    between atoms: _363  and  _364
REMARK  147  A    between atoms: _369  and  _371
REMARK  148  A    between atoms: _371  and  _372
REMARK  149  A    between atoms: _371  and  _374
REMARK  150  A    between atoms: _374  and  _375
REMARK  151  A    between atoms: _375  and  _376
REMARK  152  A    between atoms: _379  and  _381
REMARK  153  A    between atoms: _381  and  _382
REMARK  154  A    between atoms: _385  and  _387
REMARK  155  A    between atoms: _387  and  _388
REMARK  156  A    between atoms: _387  and  _390
REMARK  157  A    between atoms: _390  and  _391
REMARK  158  A    between atoms: _397  and  _399
REMARK  159  A    between atoms: _399  and  _400
REMARK  160  A    between atoms: _399  and  _402
REMARK  161  A    between atoms: _402  and  _403
REMARK  162  A    between atoms: _406  and  _408
REMARK  163  A    between atoms: _408  and  _409
REMARK  164  A    between atoms: _408  and  _411
REMARK  165  A    between atoms: _411  and  _412
REMARK  166  A    between atoms: _415  and  _417
REMARK  167  A    between atoms: _417  and  _418
REMARK  168  A    between atoms: _417  and  _420
REMARK  169  A    between atoms: _420  and  _421
REMARK  170  A    between atoms: _424  and  _426
REMARK  171  A    between atoms: _426  and  _427
REMARK  172  A    between atoms: _426  and  _429
REMARK  173  A    between atoms: _429  and  _430
REMARK  174  A    between atoms: _433  and  _435
REMARK  175  A    between atoms: _435  and  _436
REMARK  176  A    between atoms: _435  and  _438
REMARK  177  A    between atoms: _438  and  _439
REMARK  178  A    between atoms: _442  and  _444
REMARK  179  A    between atoms: _444  and  _445
REMARK  180  A    between atoms: _448  and  _450
REMARK  181  A    between atoms: _450  and  _451
REMARK  182  A    between atoms: _450  and  _453
REMARK  183  A    between atoms: _453  and  _454
REMARK  184  A    between atoms: _456  and  _458
REMARK  185  A    between atoms: _458  and  _459
REMARK  186  A    between atoms: _458  and  _461
REMARK  187  A    between atoms: _464  and  _466
REMARK  188  A    between atoms: _466  and  _467
REMARK  189  A    between atoms: _466  and  _469
REMARK  190  A    between atoms: _469  and  _470
REMARK  191  A    between atoms: _472  and  _474
REMARK  192  A    between atoms: _474  and  _475
REMARK  193  A    between atoms: _474  and  _477
REMARK  194  A    between atoms: _477  and  _478
REMARK  195  A    between atoms: _484  and  _486
REMARK  196  A    between atoms: _486  and  _487
REMARK  197  A    between atoms: _486  and  _489
REMARK  198  A    between atoms: _489  and  _490
REMARK  199  A    between atoms: _493  and  _495
REMARK  200  A    between atoms: _495  and  _496
REMARK  201  A    between atoms: _498  and  _500
REMARK  202  A    between atoms: _500  and  _501
REMARK  203  A    between atoms: _500  and  _503
REMARK  204  A    between atoms: _503  and  _504
REMARK  205  A    between atoms: _507  and  _509
REMARK  206  A    between atoms: _509  and  _510
REMARK  207  A    between atoms: _509  and  _512
REMARK  208  A    between atoms: _512  and  _513
REMARK  209  A    between atoms: _519  and  _521
REMARK  210  A    between atoms: _521  and  _522
REMARK  211  A    between atoms: _524  and  _526
REMARK  212  A    between atoms: _526  and  _527
REMARK  213  A    between atoms: _526  and  _529
REMARK  214  A    between atoms: _529  and  _530
REMARK  215  A    between atoms: _530  and  _531
REMARK  216  A    between atoms: _531  and  _532
REMARK  217  A    between atoms: _532  and  _533
REMARK  218  A    between atoms: _537  and  _539
REMARK  219  A    between atoms: _539  and  _540
REMARK  220  A    between atoms: _542  and  _544
REMARK  221  A    between atoms: _544  and  _545
REMARK  222  A    between atoms: _544  and  _547
REMARK  223  A    between atoms: _550  and  _552
REMARK  224  A    between atoms: _552  and  _553
REMARK  225  A    between atoms: _555  and  _557
REMARK  226  A    between atoms: _557  and  _558
REMARK  227  A    between atoms: _557  and  _560
REMARK  228  A    between atoms: _560  and  _561
REMARK                            x       y       z     vdW  Elec       q    Type
REMARK                         _______ _______ _______ _____ _____    ______ ____
ROOT
ATOM      1  C   SER A   5      13.233  -2.362  -1.005  0.00  0.00    +0.243 C 
ATOM      2  O   SER A   5      12.480  -1.746  -0.248  0.00  0.00    -0.273 OA
ATOM      3  N   HIS A   6      14.288  -1.797  -1.629  0.00  0.00    -0.297 N 
ATOM      4  H   HIS A   6      14.853  -2.419  -2.242  0.00  0.00    +0.150 HD
ENDROOT
BRANCH   3   5
ATOM      5  CA  HIS A   6      14.722  -0.401  -1.535  0.00  0.00    +0.155 C 
BRANCH   5   6
ATOM      6  C   HIS A   6      13.687   0.477  -2.229  0.00  0.00    +0.241 C 
ATOM      7  O   HIS A   6      13.331   1.542  -1.723  0.00  0.00    -0.273 OA
ATOM      8  N   GLU A   7      13.215   0.018  -3.395  0.00  0.00    -0.297 N 
ATOM      9  H   GLU A   7      13.600  -0.884  -3.742  0.00  0.00    +0.150 HD
BRANCH   8  10
ATOM     10  CA  GLU A   7      12.213   0.671  -4.215  0.00  0.00    +0.149 C 
BRANCH  10  11
ATOM     11  C   GLU A   7      10.876   0.597  -3.474  0.00  0.00    +0.241 C 
ATOM     12  N   ALA A   8      10.506  -0.611  -3.000  0.00  0.00    -0.297 N 
ATOM     13  H   ALA A   8      11.129  -1.422  -3.192  0.00  0.00    +0.150 HD
ATOM     14  O   GLU A   7      10.197   1.618  -3.350  0.00  0.00    -0.273 OA
BRANCH  12  15
ATOM     15  CA  ALA A   8       9.284  -0.852  -2.233  0.00  0.00    +0.149 C 
ATOM     16  CB  ALA A   8       9.180  -2.320  -1.825  0.00  0.00    +0.031 C 
BRANCH  15  17
ATOM     17  C   ALA A   8       9.252   0.060  -1.003  0.00  0.00    +0.241 C 
ATOM     18  N   PHE A   9      10.392   0.205  -0.271  0.00  0.00    -0.298 N 
ATOM     19  H   PHE A   9      11.227  -0.352  -0.542  0.00  0.00    +0.150 HD
ATOM     20  O   ALA A   8       8.234   0.702  -0.790  0.00  0.00    -0.273 OA
BRANCH  18  21
ATOM     21  CA  PHE A   9      10.500   1.112   0.885  0.00  0.00    +0.141 C 
BRANCH  21  22
ATOM     22  C   PHE A   9      10.222   2.558   0.495  0.00  0.00    +0.227 C 
ATOM     23  O   PHE A   9       9.430   3.211   1.156  0.00  0.00    -0.286 OA
ENDBRANCH  21  22
BRANCH  21  24
ATOM     24  CB  PHE A   9      11.874   1.028   1.582  0.00  0.00    +0.054 C 
BRANCH  24  25
ATOM     25  CG  PHE A   9      12.004   1.961   2.775  0.00  0.00    -0.020 A 
ATOM     26  CD2 PHE A   9      11.514   1.592   4.026  0.00  0.00    -0.004 A 
ATOM     27  CE2 PHE A   9      11.586   2.475   5.115  0.00  0.00    -0.000 A 
ATOM     28  CZ  PHE A   9      12.138   3.726   4.953  0.00  0.00    -0.000 A 
ATOM     29  CE1 PHE A   9      12.629   4.111   3.716  0.00  0.00    -0.000 A 
ATOM     30  CD1 PHE A   9      12.570   3.230   2.633  0.00  0.00    -0.004 A 
ENDBRANCH  24  25
ENDBRANCH  21  24
ENDBRANCH  18  21
ENDBRANCH  15  17
ENDBRANCH  12  15
ENDBRANCH  10  11
BRANCH  10  31
ATOM     31  CB  GLU A   7      12.135  -0.016  -5.605  0.00  0.00    +0.041 C 
BRANCH  31  32
ATOM     32  CG  GLU A   7      11.127   0.616  -6.551  0.00  0.00    +0.116 C 
BRANCH  32  33
ATOM     33  CD  GLU A   7      10.768  -0.155  -7.810  0.00  0.00    +0.365 C 
ATOM     34  OE2 GLU A   7      11.140  -1.343  -7.922  0.00  0.00    -0.246 OA
ATOM     35  OE1 GLU A   7      10.088   0.430  -8.683  0.00  0.00    -0.246 OA
ENDBRANCH  32  33
ENDBRANCH  31  32
ENDBRANCH  10  31
ENDBRANCH   8  10
ENDBRANCH   5   6
BRANCH   5  36
ATOM     36  CB  HIS A   6      16.113  -0.226  -2.211  0.00  0.00    +0.076 C 
BRANCH  36  37
ATOM     37  CG  HIS A   6      17.156  -1.232  -1.787  0.00  0.00    +0.082 A 
ATOM     38  CD2 HIS A   6      17.313  -1.883  -0.605  0.00  0.00    +0.115 A 
ATOM     39  NE2 HIS A   6      18.425  -2.682  -0.737  0.00  0.00    -0.221 NA
ATOM     40  CE1 HIS A   6      18.915  -2.482  -1.963  0.00  0.00    +0.199 A 
ATOM     41  ND1 HIS A   6      18.195  -1.595  -2.634  0.00  0.00    -0.227 NA
ENDBRANCH  36  37
ENDBRANCH   5  36
ENDBRANCH   3   5
BRANCH   1  42
ATOM     42  CA  SER A   5      12.994  -3.867  -1.297  0.00  0.00    +0.178 C 
BRANCH  42  44
ATOM     43  C   THR A   4      13.360  -3.803  -3.772  0.00  0.00    +0.243 C 
ATOM     44  N   SER A   5      13.709  -4.217  -2.534  0.00  0.00    -0.295 N 
ATOM     45  H   SER A   5      14.546  -4.829  -2.449  0.00  0.00    +0.150 HD
ATOM     46  O   THR A   4      12.365  -3.137  -3.999  0.00  0.00    -0.273 OA
BRANCH  43  47
ATOM     47  CA  THR A   4      14.278  -4.184  -4.912  0.00  0.00    +0.176 C 
BRANCH  47  49
ATOM     48  C   GLY A   3      13.159  -4.980  -6.941  0.00  0.00    +0.243 C 
ATOM     49  N   THR A   4      13.644  -3.962  -6.207  0.00  0.00    -0.295 N 
ATOM     50  H   THR A   4      13.565  -2.992  -6.572  0.00  0.00    +0.150 HD
ATOM     51  O   GLY A   3      13.206  -6.157  -6.562  0.00  0.00    -0.273 OA
BRANCH  48  52
ATOM     52  CA  GLY A   3      12.539  -4.627  -8.280  0.00  0.00    +0.176 C 
BRANCH  52  54
ATOM     53  C   ALA A   2      14.087  -2.957  -9.248  0.00  0.00    +0.241 C 
ATOM     54  N   GLY A   3      12.887  -3.297  -8.771  0.00  0.00    -0.295 N 
ATOM     55  H   GLY A   3      12.150  -2.564  -8.748  0.00  0.00    +0.150 HD
ATOM     56  O   ALA A   2      15.053  -3.728  -9.300  0.00  0.00    -0.273 OA
BRANCH  53  57
ATOM     57  CA  ALA A   2      14.241  -1.513  -9.738  0.00  0.00    +0.149 C 
ATOM     58  CB  ALA A   2      13.861  -1.415 -11.213  0.00  0.00    +0.031 C 
BRANCH  57  61
ATOM     59  C   GLN A   1      16.196  -0.865  -8.361  0.00  0.00    +0.238 C 
ATOM     60  O   GLN A   1      15.584  -0.968  -7.292  0.00  0.00    -0.274 OA
ATOM     61  N   ALA A   2      15.623  -1.079  -9.560  0.00  0.00    -0.297 N 
ATOM     62  H   ALA A   2      16.200  -0.926 -10.411  0.00  0.00    +0.150 HD
BRANCH  59  63
ATOM     63  CA  GLN A   1      17.667  -0.430  -8.367  0.00  0.00    +0.145 C 
BRANCH  63  64
ATOM     64  N   GLN A   1      17.806   0.590  -7.341  0.00  0.00    -0.238 NA
ATOM     65  H   GLN A   1      18.215   0.345  -6.417  0.00  0.00    +0.142 HD
ENDBRANCH  63  64
BRANCH  63  66
ATOM     66  CB  GLN A   1      18.595  -1.626  -8.108  0.00  0.00    +0.036 C 
BRANCH  66  67
ATOM     67  CG  GLN A   1      18.647  -2.606  -9.294  0.00  0.00    +0.087 C 
BRANCH  67  68
ATOM     68  CD  GLN A   1      19.276  -3.934  -8.972  0.00  0.00    +0.219 C 
ATOM     69  OE1 GLN A   1      19.666  -4.215  -7.834  0.00  0.00    -0.275 OA
ATOM     70  NE2 GLN A   1      19.385  -4.788  -9.976  0.00  0.00    -0.329 N 
ATOM     71 HE21 GLN A   1      19.808  -5.725  -9.818  0.00  0.00    +0.145 HD
ATOM     72 HE22 GLN A   1      19.047  -4.523 -10.923  0.00  0.00    +0.145 HD
ENDBRANCH  67  68
ENDBRANCH  66  67
ENDBRANCH  63  66
ENDBRANCH  59  63
ENDBRANCH  57  61
ENDBRANCH  53  57
ENDBRANCH  52  54
ENDBRANCH  48  52
ENDBRANCH  47  49
BRANCH  47  73
ATOM     73  CB  THR A   4      15.650  -3.471  -4.830  0.00  0.00    +0.137 C 
ATOM     74  CG2 THR A   4      16.648  -3.994  -5.860  0.00  0.00    +0.034 C 
BRANCH  73  75
ATOM     75  OG1 THR A   4      15.444  -2.062  -4.978  0.00  0.00    -0.382 OA
ATOM     76  HG1 THR A   4      15.022  -1.882  -5.855  0.00  0.00    +0.210 HD
ENDBRANCH  73  75
ENDBRANCH  47  73
ENDBRANCH  43  47
ENDBRANCH  42  44
BRANCH  42  77
ATOM     77  CB  SER A   5      13.512  -4.714  -0.133  0.00  0.00    +0.166 C 
BRANCH  77  78
ATOM     78  OG  SER A   5      14.917  -4.561   0.008  0.00  0.00    -0.380 OA
ATOM     79  H   SER A   5      15.234  -5.115   0.765  0.00  0.00    +0.211 HD
ENDBRANCH  77  78
ENDBRANCH  42  77
ENDBRANCH   1  42
TORSDOF 32
REMARK  Name = ../refined-set-2016/4pox/4pox_pocket.pdb
REMARK  228 active torsions:
REMARK  status: ('A' for Active; 'I' for Inactive)
REMARK    1  A    between atoms: _1  and  _3
REMARK    2  A    between atoms: _3  and  _4
REMARK    3  A    between atoms: _3  and  _6
REMARK    4  A    between atoms: _6  and  _7
REMARK    5  A    between atoms: _10  and  _12
REMARK    6  A    between atoms: _12  and  _13
REMARK    7  A    between atoms: _12  and  _15
REMARK    8  A    between atoms: _15  and  _16
REMARK    9  A    between atoms: _16  and  _17
REMARK   10  A    between atoms: _20  and  _22
REMARK   11  A    between atoms: _22  and  _23
REMARK   12  A    between atoms: _25  and  _27
REMARK   13  A    between atoms: _27  and  _28
REMARK   14  A    between atoms: _27  and  _30
REMARK   15  A    between atoms: _30  and  _31
REMARK   16  A    between atoms: _33  and  _35
REMARK   17  A    between atoms: _35  and  _36
REMARK   18  A    between atoms: _35  and  _38
REMARK   19  A    between atoms: _38  and  _39
REMARK   20  A    between atoms: _44  and  _45
REMARK   21  A    between atoms: _47  and  _49
REMARK   22  A    between atoms: _49  and  _50
REMARK   23  A    between atoms: _53  and  _55
REMARK   24  A    between atoms: _55  and  _56
REMARK   25  A    between atoms: _55  and  _58
REMARK   26  A    between atoms: _58  and  _59
REMARK   27  A    between atoms: _64  and  _65
REMARK   28  A    between atoms: _67  and  _69
REMARK   29  A    between atoms: _69  and  _70
REMARK   30  A    between atoms: _69  and  _72
REMARK   31  A    between atoms: _72  and  _73
REMARK   32  A    between atoms: _78  and  _80
REMARK   33  A    between atoms: _80  and  _81
REMARK   34  A    between atoms: _80  and  _83
REMARK   35  A    between atoms: _83  and  _84
REMARK   36  A    between atoms: _90  and  _92
REMARK   37  A    between atoms: _92  and  _93
REMARK   38  A    between atoms: _92  and  _95
REMARK   39  A    between atoms: _95  and  _96
REMARK   40  A    between atoms: _99  and  _101
REMARK   41  A    between atoms: _101  and  _102
REMARK   42  A    between atoms: _101  and  _104
REMARK   43  A    between atoms: _104  and  _105
REMARK   44  A    between atoms: _105  and  _106
REMARK   45  A    between atoms: _111  and  _113
REMARK   46  A    between atoms: _113  and  _114
REMARK   47  A    between atoms: _117  and  _119
REMARK   48  A    between atoms: _119  and  _120
REMARK   49  A    between atoms: _119  and  _122
REMARK   50  A    between atoms: _122  and  _123
REMARK   51  A    between atoms: _133  and  _135
REMARK   52  A    between atoms: _135  and  _136
REMARK   53  A    between atoms: _135  and  _138
REMARK   54  A    between atoms: _138  and  _139
REMARK   55  A    between atoms: _142  and  _144
REMARK   56  A    between atoms: _144  and  _145
REMARK   57  A    between atoms: _144  and  _147
REMARK   58  A    between atoms: _147  and  _148
REMARK   59  A    between atoms: _151  and  _153
REMARK   60  A    between atoms: _153  and  _154
REMARK   61  A    between atoms: _153  and  _156
REMARK   62  A    between atoms: _156  and  _157
REMARK   63  A    between atoms: _160  and  _162
REMARK   64  A    between atoms: _162  and  _163
REMARK   65  A    between atoms: _162  and  _165
REMARK   66  A    between atoms: _165  and  _166
REMARK   67  A    between atoms: _166  and  _167
REMARK   68  A    between atoms: _169  and  _171
REMARK   69  A    between atoms: _171  and  _172
REMARK   70  A    between atoms: _175  and  _177
REMARK   71  A    between atoms: _177  and  _178
REMARK   72  A    between atoms: _181  and  _183
REMARK   73  A    between atoms: _183  and  _184
REMARK   74  A    between atoms: _183  and  _186
REMARK   75  A    between atoms: _186  and  _187
REMARK   76  A    between atoms: _187  and  _188
REMARK   77  A    between atoms: _190  and  _192
REMARK   78  A    between atoms: _192  and  _193
REMARK   79  A    between atoms: _195  and  _197
REMARK   80  A    between atoms: _197  and  _198
REMARK   81  A    between atoms: _197  and  _200
REMARK   82  A    between atoms: _200  and  _201
REMARK   83  A    between atoms: _204  and  _206
REMARK   84  A    between atoms: _206  and  _207
REMARK   85  A    between atoms: _206  and  _209
REMARK   86  A    between atoms: _209  and  _210
REMARK   87  A    between atoms: _210  and  _211
REMARK   88  A    between atoms: _216  and  _218
REMARK   89  A    between atoms: _218  and  _219
REMARK   90  A    between atoms: _218  and  _221
REMARK   91  A    between atoms: _221  and  _222
REMARK   92  A    between atoms: _222  and  _223
REMARK   93  A    between atoms: _223  and  _224
REMARK   94  A    between atoms: _233  and  _235
REMARK   95  A    between atoms: _235  and  _236
REMARK   96  A    between atoms: _235  and  _238
REMARK   97  A    between atoms: _238  and  _239
REMARK   98  A    between atoms: _246  and  _247
REMARK   99  A    between atoms: _252  and  _254
REMARK  100  A    between atoms: _254  and  _255
REMARK  101  A    between atoms: _254  and  _257
REMARK  102  A    between atoms: _257  and  _258
REMARK  103  A    between atoms: _263  and  _264
REMARK  104  A    between atoms: _266  and  _268
REMARK  105  A    between atoms: _268  and  _269
REMARK  106  A    between atoms: _268  and  _271
REMARK  107  A    between atoms: _271  and  _272
REMARK  108  A    between atoms: _275  and  _277
REMARK  109  A    between atoms: _277  and  _278
REMARK  110  A    between atoms: _277  and  _280
REMARK  111  A    between atoms: _280  and  _281
REMARK  112  A    between atoms: _284  and  _286
REMARK  113  A    between atoms: _286  and  _287
REMARK  114  A    between atoms: _286  and  _289
REMARK  115  A    between atoms: _289  and  _290
REMARK  116  A    between atoms: _294  and  _295
REMARK  117  A    between atoms: _300  and  _302
REMARK  118  A    between atoms: _302  and  _303
REMARK  119  A    between atoms: _302  and  _305
REMARK  120  A    between atoms: _305  and  _306
REMARK  121  A    between atoms: _306  and  _307
REMARK  122  A    between atoms: _309  and  _311
REMARK  123  A    between atoms: _311  and  _312
REMARK  124  A    between atoms: _311  and  _314
REMARK  125  A    between atoms: _314  and  _315
REMARK  126  A    between atoms: _318  and  _320
REMARK  127  A    between atoms: _320  and  _321
REMARK  128  A    between atoms: _320  and  _323
REMARK  129  A    between atoms: _323  and  _324
REMARK  130  A    between atoms: _324  and  _325
REMARK  131  A    between atoms: _330  and  _332
REMARK  132  A    between atoms: _332  and  _333
REMARK  133  A    between atoms: _336  and  _338
REMARK  134  A    between atoms: _338  and  _339
REMARK  135  A    between atoms: _341  and  _343
REMARK  136  A    between atoms: _343  and  _344
REMARK  137  A    between atoms: _343  and  _346
REMARK  138  A    between atoms: _346  and  _347
REMARK  139  A    between atoms: _350  and  _352
REMARK  140  A    between atoms: _352  and  _353
REMARK  141  A    between atoms: _352  and  _355
REMARK  142  A    between atoms: _355  and  _356
REMARK  143  A    between atoms: _358  and  _360
REMARK  144  A    between atoms: _360  and  _361
REMARK  145  A    between atoms: _360  and  _363
REMARK  146  A    between atoms: _363  and  _364
REMARK  147  A    between atoms: _369  and  _371
REMARK  148  A    between atoms: _371  and  _372
REMARK  149  A    between atoms: _371  and  _374
REMARK  150  A    between atoms: _374  and  _375
REMARK  151  A    between atoms: _375  and  _376
REMARK  152  A    between atoms: _379  and  _381
REMARK  153  A    between atoms: _381  and  _382
REMARK  154  A    between atoms: _385  and  _387
REMARK  155  A    between atoms: _387  and  _388
REMARK  156  A    between atoms: _387  and  _390
REMARK  157  A    between atoms: _390  and  _391
REMARK  158  A    between atoms: _397  and  _399
REMARK  159  A    between atoms: _399  and  _400
REMARK  160  A    between atoms: _399  and  _402
REMARK  161  A    between atoms: _402  and  _403
REMARK  162  A    between atoms: _406  and  _408
REMARK  163  A    between atoms: _408  and  _409
REMARK  164  A    between atoms: _408  and  _411
REMARK  165  A    between atoms: _411  and  _412
REMARK  166  A    between atoms: _415  and  _417
REMARK  167  A    between atoms: _417  and  _418
REMARK  168  A    between atoms: _417  and  _420
REMARK  169  A    between atoms: _420  and  _421
REMARK  170  A    between atoms: _424  and  _426
REMARK  171  A    between atoms: _426  and  _427
REMARK  172  A    between atoms: _426  and  _429
REMARK  173  A    between atoms: _429  and  _430
REMARK  174  A    between atoms: _433  and  _435
REMARK  175  A    between atoms: _435  and  _436
REMARK  176  A    between atoms: _435  and  _438
REMARK  177  A    between atoms: _438  and  _439
REMARK  178  A    between atoms: _442  and  _444
REMARK  179  A    between atoms: _444  and  _445
REMARK  180  A    between atoms: _448  and  _450
REMARK  181  A    between atoms: _450  and  _451
REMARK  182  A    between atoms: _450  and  _453
REMARK  183  A    between atoms: _453  and  _454
REMARK  184  A    between atoms: _456  and  _458
REMARK  185  A    between atoms: _458  and  _459
REMARK  186  A    between atoms: _458  and  _461
REMARK  187  A    between atoms: _464  and  _466
REMARK  188  A    between atoms: _466  and  _467
REMARK  189  A    between atoms: _466  and  _469
REMARK  190  A    between atoms: _469  and  _470
REMARK  191  A    between atoms: _472  and  _474
REMARK  192  A    between atoms: _474  and  _475
REMARK  193  A    between atoms: _474  and  _477
REMARK  194  A    between atoms: _477  and  _478
REMARK  195  A    between atoms: _484  and  _486
REMARK  196  A    between atoms: _486  and  _487
REMARK  197  A    between atoms: _486  and  _489
REMARK  198  A    between atoms: _489  and  _490
REMARK  199  A    between atoms: _493  and  _495
REMARK  200  A    between atoms: _495  and  _496
REMARK  201  A    between atoms: _498  and  _500
REMARK  202  A    between atoms: _500  and  _501
REMARK  203  A    between atoms: _500  and  _503
REMARK  204  A    between atoms: _503  and  _504
REMARK  205  A    between atoms: _507  and  _509
REMARK  206  A    between atoms: _509  and  _510
REMARK  207  A    between atoms: _509  and  _512
REMARK  208  A    between atoms: _512  and  _513
REMARK  209  A    between atoms: _519  and  _521
REMARK  210  A    between atoms: _521  and  _522
REMARK  211  A    between atoms: _524  and  _526
REMARK  212  A    between atoms: _526  and  _527
REMARK  213  A    between atoms: _526  and  _529
REMARK  214  A    between atoms: _529  and  _530
REMARK  215  A    between atoms: _530  and  _531
REMARK  216  A    between atoms: _531  and  _532
REMARK  217  A    between atoms: _532  and  _533
REMARK  218  A    between atoms: _537  and  _539
REMARK  219  A    between atoms: _539  and  _540
REMARK  220  A    between atoms: _542  and  _544
REMARK  221  A    between atoms: _544  and  _545
REMARK  222  A    between atoms: _544  and  _547
REMARK  223  A    between atoms: _550  and  _552
REMARK  224  A    between atoms: _552  and  _553
REMARK  225  A    between atoms: _555  and  _557
REMARK  226  A    between atoms: _557  and  _558
REMARK  227  A    between atoms: _557  and  _560
REMARK  228  A    between atoms: _560  and  _561
REMARK                            x       y       z     vdW  Elec       q    Type
REMARK                         _______ _______ _______ _____ _____    ______ ____
ROOT
ATOM      1  C   THR A   2      21.888  -1.291 -10.909  0.00  0.00    +0.243 C 
ATOM      2  N   ILE A   3      22.509  -1.756  -9.806  0.00  0.00    -0.297 N 
ATOM      3  H   ILE A   3      22.646  -2.783  -9.717  0.00  0.00    +0.150 HD
ATOM      4  O   THR A   2      21.662  -0.095 -11.101  0.00  0.00    -0.273 OA
ENDROOT
BRANCH   2   5
ATOM      5  CA  ILE A   3      23.003  -0.897  -8.723  0.00  0.00    +0.149 C 
BRANCH   5   6
ATOM      6  C   ILE A   3      24.255  -0.112  -9.174  0.00  0.00    +0.241 C 
ATOM      7  O   ILE A   3      24.572   0.930  -8.598  0.00  0.00    -0.273 OA
ATOM      8  N   ASP A   4      24.965  -0.631 -10.195  0.00  0.00    -0.298 N 
ATOM      9  H   ASP A   4      24.633  -1.519 -10.622  0.00  0.00    +0.150 HD
BRANCH   8  10
ATOM     10  CA  ASP A   4      26.177  -0.016 -10.738  0.00  0.00    +0.148 C 
BRANCH  10  11
ATOM     11  C   ASP A   4      25.867   1.308 -11.441  0.00  0.00    +0.227 C 
ATOM     12  O   ASP A   4      26.654   2.250 -11.348  0.00  0.00    -0.286 OA
ENDBRANCH  10  11
BRANCH  10  13
ATOM     13  CB  ASP A   4      26.926  -1.001 -11.653  0.00  0.00    +0.142 C 
BRANCH  13  14
ATOM     14  CG  ASP A   4      27.371  -2.289 -10.970  0.00  0.00    +0.367 C 
ATOM     15  OD2 ASP A   4      27.575  -2.271  -9.734  0.00  0.00    -0.246 OA
ATOM     16  OD1 ASP A   4      27.557  -3.301 -11.678  0.00  0.00    -0.246 OA
ENDBRANCH  13  14
ENDBRANCH  10  13
ENDBRANCH   8  10
ENDBRANCH   5   6
BRANCH   5  17
ATOM     17  CB  ILE A   3      23.258  -1.738  -7.428  0.00  0.00    +0.027 C 
ATOM     18  CG2 ILE A   3      24.539  -2.589  -7.541  0.00  0.00    +0.002 C 
BRANCH  17  19
ATOM     19  CG1 ILE A   3      23.270  -0.863  -6.162  0.00  0.00    +0.002 C 
ATOM     20  CD1 ILE A   3      21.907  -0.406  -5.640  0.00  0.00    +0.000 C 
ENDBRANCH  17  19
ENDBRANCH   5  17
ENDBRANCH   2   5
BRANCH   1  21
ATOM     21  CA  THR A   2      21.498  -2.327 -11.967  0.00  0.00    +0.176 C 
BRANCH  21  24
ATOM     22  C   ASP A   1      19.305  -2.453 -13.157  0.00  0.00    +0.239 C 
ATOM     23  O   ASP A   1      19.022  -3.567 -12.721  0.00  0.00    -0.274 OA
ATOM     24  N   THR A   2      20.452  -1.801 -12.847  0.00  0.00    -0.295 N 
ATOM     25  H   THR A   2      20.600  -0.860 -13.264  0.00  0.00    +0.150 HD
BRANCH  22  26
ATOM     26  CA  ASP A   1      18.320  -1.733 -14.083  0.00  0.00    +0.156 C 
BRANCH  26  27
ATOM     27  N   ASP A   1      18.230  -0.317 -13.747  0.00  0.00    -0.238 NA
ATOM     28  H   ASP A   1      18.593   0.372 -14.436  0.00  0.00    +0.142 HD
ENDBRANCH  26  27
BRANCH  26  29
ATOM     29  CB  ASP A   1      18.695  -1.931 -15.568  0.00  0.00    +0.140 C 
BRANCH  29  30
ATOM     30  CG  ASP A   1      20.006  -1.282 -16.001  0.00  0.00    +0.367 C 
ATOM     31  OD2 ASP A   1      20.316  -0.167 -15.505  0.00  0.00    -0.246 OA
ATOM     32  OD1 ASP A   1      20.707  -1.872 -16.860  0.00  0.00    -0.246 OA
ENDBRANCH  29  30
ENDBRANCH  26  29
ENDBRANCH  22  26
ENDBRANCH  21  24
BRANCH  21  33
ATOM     33  CB  THR A   2      22.745  -2.778 -12.761  0.00  0.00    +0.137 C 
ATOM     34  CG2 THR A   2      22.452  -3.845 -13.814  0.00  0.00    +0.034 C 
BRANCH  33  35
ATOM     35  OG1 THR A   2      23.382  -1.641 -13.335  0.00  0.00    -0.382 OA
ATOM     36  HG1 THR A   2      24.180  -1.933 -13.843  0.00  0.00    +0.210 HD
ENDBRANCH  33  35
ENDBRANCH  21  33
ENDBRANCH   1  21
TORSDOF 16
REMARK  Name = ../refined-set-2016/4pox/4pox_pocket.pdb
REMARK  228 active torsions:
REMARK  status: ('A' for Active; 'I' for Inactive)
REMARK    1  A    between atoms: _1  and  _3
REMARK    2  A    between atoms: _3  and  _4
REMARK    3  A    between atoms: _3  and  _6
REMARK    4  A    between atoms: _6  and  _7
REMARK    5  A    between atoms: _10  and  _12
REMARK    6  A    between atoms: _12  and  _13
REMARK    7  A    between atoms: _12  and  _15
REMARK    8  A    between atoms: _15  and  _16
REMARK    9  A    between atoms: _16  and  _17
REMARK   10  A    between atoms: _20  and  _22
REMARK   11  A    between atoms: _22  and  _23
REMARK   12  A    between atoms: _25  and  _27
REMARK   13  A    between atoms: _27  and  _28
REMARK   14  A    between atoms: _27  and  _30
REMARK   15  A    between atoms: _30  and  _31
REMARK   16  A    between atoms: _33  and  _35
REMARK   17  A    between atoms: _35  and  _36
REMARK   18  A    between atoms: _35  and  _38
REMARK   19  A    between atoms: _38  and  _39
REMARK   20  A    between atoms: _44  and  _45
REMARK   21  A    between atoms: _47  and  _49
REMARK   22  A    between atoms: _49  and  _50
REMARK   23  A    between atoms: _53  and  _55
REMARK   24  A    between atoms: _55  and  _56
REMARK   25  A    between atoms: _55  and  _58
REMARK   26  A    between atoms: _58  and  _59
REMARK   27  A    between atoms: _64  and  _65
REMARK   28  A    between atoms: _67  and  _69
REMARK   29  A    between atoms: _69  and  _70
REMARK   30  A    between atoms: _69  and  _72
REMARK   31  A    between atoms: _72  and  _73
REMARK   32  A    between atoms: _78  and  _80
REMARK   33  A    between atoms: _80  and  _81
REMARK   34  A    between atoms: _80  and  _83
REMARK   35  A    between atoms: _83  and  _84
REMARK   36  A    between atoms: _90  and  _92
REMARK   37  A    between atoms: _92  and  _93
REMARK   38  A    between atoms: _92  and  _95
REMARK   39  A    between atoms: _95  and  _96
REMARK   40  A    between atoms: _99  and  _101
REMARK   41  A    between atoms: _101  and  _102
REMARK   42  A    between atoms: _101  and  _104
REMARK   43  A    between atoms: _104  and  _105
REMARK   44  A    between atoms: _105  and  _106
REMARK   45  A    between atoms: _111  and  _113
REMARK   46  A    between atoms: _113  and  _114
REMARK   47  A    between atoms: _117  and  _119
REMARK   48  A    between atoms: _119  and  _120
REMARK   49  A    between atoms: _119  and  _122
REMARK   50  A    between atoms: _122  and  _123
REMARK   51  A    between atoms: _133  and  _135
REMARK   52  A    between atoms: _135  and  _136
REMARK   53  A    between atoms: _135  and  _138
REMARK   54  A    between atoms: _138  and  _139
REMARK   55  A    between atoms: _142  and  _144
REMARK   56  A    between atoms: _144  and  _145
REMARK   57  A    between atoms: _144  and  _147
REMARK   58  A    between atoms: _147  and  _148
REMARK   59  A    between atoms: _151  and  _153
REMARK   60  A    between atoms: _153  and  _154
REMARK   61  A    between atoms: _153  and  _156
REMARK   62  A    between atoms: _156  and  _157
REMARK   63  A    between atoms: _160  and  _162
REMARK   64  A    between atoms: _162  and  _163
REMARK   65  A    between atoms: _162  and  _165
REMARK   66  A    between atoms: _165  and  _166
REMARK   67  A    between atoms: _166  and  _167
REMARK   68  A    between atoms: _169  and  _171
REMARK   69  A    between atoms: _171  and  _172
REMARK   70  A    between atoms: _175  and  _177
REMARK   71  A    between atoms: _177  and  _178
REMARK   72  A    between atoms: _181  and  _183
REMARK   73  A    between atoms: _183  and  _184
REMARK   74  A    between atoms: _183  and  _186
REMARK   75  A    between atoms: _186  and  _187
REMARK   76  A    between atoms: _187  and  _188
REMARK   77  A    between atoms: _190  and  _192
REMARK   78  A    between atoms: _192  and  _193
REMARK   79  A    between atoms: _195  and  _197
REMARK   80  A    between atoms: _197  and  _198
REMARK   81  A    between atoms: _197  and  _200
REMARK   82  A    between atoms: _200  and  _201
REMARK   83  A    between atoms: _204  and  _206
REMARK   84  A    between atoms: _206  and  _207
REMARK   85  A    between atoms: _206  and  _209
REMARK   86  A    between atoms: _209  and  _210
REMARK   87  A    between atoms: _210  and  _211
REMARK   88  A    between atoms: _216  and  _218
REMARK   89  A    between atoms: _218  and  _219
REMARK   90  A    between atoms: _218  and  _221
REMARK   91  A    between atoms: _221  and  _222
REMARK   92  A    between atoms: _222  and  _223
REMARK   93  A    between atoms: _223  and  _224
REMARK   94  A    between atoms: _233  and  _235
REMARK   95  A    between atoms: _235  and  _236
REMARK   96  A    between atoms: _235  and  _238
REMARK   97  A    between atoms: _238  and  _239
REMARK   98  A    between atoms: _246  and  _247
REMARK   99  A    between atoms: _252  and  _254
REMARK  100  A    between atoms: _254  and  _255
REMARK  101  A    between atoms: _254  and  _257
REMARK  102  A    between atoms: _257  and  _258
REMARK  103  A    between atoms: _263  and  _264
REMARK  104  A    between atoms: _266  and  _268
REMARK  105  A    between atoms: _268  and  _269
REMARK  106  A    between atoms: _268  and  _271
REMARK  107  A    between atoms: _271  and  _272
REMARK  108  A    between atoms: _275  and  _277
REMARK  109  A    between atoms: _277  and  _278
REMARK  110  A    between atoms: _277  and  _280
REMARK  111  A    between atoms: _280  and  _281
REMARK  112  A    between atoms: _284  and  _286
REMARK  113  A    between atoms: _286  and  _287
REMARK  114  A    between atoms: _286  and  _289
REMARK  115  A    between atoms: _289  and  _290
REMARK  116  A    between atoms: _294  and  _295
REMARK  117  A    between atoms: _300  and  _302
REMARK  118  A    between atoms: _302  and  _303
REMARK  119  A    between atoms: _302  and  _305
REMARK  120  A    between atoms: _305  and  _306
REMARK  121  A    between atoms: _306  and  _307
REMARK  122  A    between atoms: _309  and  _311
REMARK  123  A    between atoms: _311  and  _312
REMARK  124  A    between atoms: _311  and  _314
REMARK  125  A    between atoms: _314  and  _315
REMARK  126  A    between atoms: _318  and  _320
REMARK  127  A    between atoms: _320  and  _321
REMARK  128  A    between atoms: _320  and  _323
REMARK  129  A    between atoms: _323  and  _324
REMARK  130  A    between atoms: _324  and  _325
REMARK  131  A    between atoms: _330  and  _332
REMARK  132  A    between atoms: _332  and  _333
REMARK  133  A    between atoms: _336  and  _338
REMARK  134  A    between atoms: _338  and  _339
REMARK  135  A    between atoms: _341  and  _343
REMARK  136  A    between atoms: _343  and  _344
REMARK  137  A    between atoms: _343  and  _346
REMARK  138  A    between atoms: _346  and  _347
REMARK  139  A    between atoms: _350  and  _352
REMARK  140  A    between atoms: _352  and  _353
REMARK  141  A    between atoms: _352  and  _355
REMARK  142  A    between atoms: _355  and  _356
REMARK  143  A    between atoms: _358  and  _360
REMARK  144  A    between atoms: _360  and  _361
REMARK  145  A    between atoms: _360  and  _363
REMARK  146  A    between atoms: _363  and  _364
REMARK  147  A    between atoms: _369  and  _371
REMARK  148  A    between atoms: _371  and  _372
REMARK  149  A    between atoms: _371  and  _374
REMARK  150  A    between atoms: _374  and  _375
REMARK  151  A    between atoms: _375  and  _376
REMARK  152  A    between atoms: _379  and  _381
REMARK  153  A    between atoms: _381  and  _382
REMARK  154  A    between atoms: _385  and  _387
REMARK  155  A    between atoms: _387  and  _388
REMARK  156  A    between atoms: _387  and  _390
REMARK  157  A    between atoms: _390  and  _391
REMARK  158  A    between atoms: _397  and  _399
REMARK  159  A    between atoms: _399  and  _400
REMARK  160  A    between atoms: _399  and  _402
REMARK  161  A    between atoms: _402  and  _403
REMARK  162  A    between atoms: _406  and  _408
REMARK  163  A    between atoms: _408  and  _409
REMARK  164  A    between atoms: _408  and  _411
REMARK  165  A    between atoms: _411  and  _412
REMARK  166  A    between atoms: _415  and  _417
REMARK  167  A    between atoms: _417  and  _418
REMARK  168  A    between atoms: _417  and  _420
REMARK  169  A    between atoms: _420  and  _421
REMARK  170  A    between atoms: _424  and  _426
REMARK  171  A    between atoms: _426  and  _427
REMARK  172  A    between atoms: _426  and  _429
REMARK  173  A    between atoms: _429  and  _430
REMARK  174  A    between atoms: _433  and  _435
REMARK  175  A    between atoms: _435  and  _436
REMARK  176  A    between atoms: _435  and  _438
REMARK  177  A    between atoms: _438  and  _439
REMARK  178  A    between atoms: _442  and  _444
REMARK  179  A    between atoms: _444  and  _445
REMARK  180  A    between atoms: _448  and  _450
REMARK  181  A    between atoms: _450  and  _451
REMARK  182  A    between atoms: _450  and  _453
REMARK  183  A    between atoms: _453  and  _454
REMARK  184  A    between atoms: _456  and  _458
REMARK  185  A    between atoms: _458  and  _459
REMARK  186  A    between atoms: _458  and  _461
REMARK  187  A    between atoms: _464  and  _466
REMARK  188  A    between atoms: _466  and  _467
REMARK  189  A    between atoms: _466  and  _469
REMARK  190  A    between atoms: _469  and  _470
REMARK  191  A    between atoms: _472  and  _474
REMARK  192  A    between atoms: _474  and  _475
REMARK  193  A    between atoms: _474  and  _477
REMARK  194  A    between atoms: _477  and  _478
REMARK  195  A    between atoms: _484  and  _486
REMARK  196  A    between atoms: _486  and  _487
REMARK  197  A    between atoms: _486  and  _489
REMARK  198  A    between atoms: _489  and  _490
REMARK  199  A    between atoms: _493  and  _495
REMARK  200  A    between atoms: _495  and  _496
REMARK  201  A    between atoms: _498  and  _500
REMARK  202  A    between atoms: _500  and  _501
REMARK  203  A    between atoms: _500  and  _503
REMARK  204  A    between atoms: _503  and  _504
REMARK  205  A    between atoms: _507  and  _509
REMARK  206  A    between atoms: _509  and  _510
REMARK  207  A    between atoms: _509  and  _512
REMARK  208  A    between atoms: _512  and  _513
REMARK  209  A    between atoms: _519  and  _521
REMARK  210  A    between atoms: _521  and  _522
REMARK  211  A    between atoms: _524  and  _526
REMARK  212  A    between atoms: _526  and  _527
REMARK  213  A    between atoms: _526  and  _529
REMARK  214  A    between atoms: _529  and  _530
REMARK  215  A    between atoms: _530  and  _531
REMARK  216  A    between atoms: _531  and  _532
REMARK  217  A    between atoms: _532  and  _533
REMARK  218  A    between atoms: _537  and  _539
REMARK  219  A    between atoms: _539  and  _540
REMARK  220  A    between atoms: _542  and  _544
REMARK  221  A    between atoms: _544  and  _545
REMARK  222  A    between atoms: _544  and  _547
REMARK  223  A    between atoms: _550  and  _552
REMARK  224  A    between atoms: _552  and  _553
REMARK  225  A    between atoms: _555  and  _557
REMARK  226  A    between atoms: _557  and  _558
REMARK  227  A    between atoms: _557  and  _560
REMARK  228  A    between atoms: _560  and  _561
REMARK                            x       y       z     vdW  Elec       q    Type
REMARK                         _______ _______ _______ _____ _____    ______ ____
ROOT
ATOM      1  C   VAL A   4      26.149  -3.165   4.228  0.00  0.00    +0.241 C 
ATOM      2  N   SER A   5      25.699  -4.416   3.969  0.00  0.00    -0.295 N 
ATOM      3  H   SER A   5      24.727  -4.653   4.252  0.00  0.00    +0.150 HD
ATOM      4  O   VAL A   4      27.264  -2.773   3.887  0.00  0.00    -0.273 OA
ENDROOT
BRANCH   2   5
ATOM      5  CA  SER A   5      26.499  -5.458   3.313  0.00  0.00    +0.178 C 
BRANCH   5   6
ATOM      6  C   SER A   5      26.927  -5.062   1.888  0.00  0.00    +0.243 C 
ATOM      7  O   SER A   5      27.975  -5.501   1.430  0.00  0.00    -0.273 OA
ATOM      8  N   PHE A   6      26.137  -4.211   1.204  0.00  0.00    -0.297 N 
ATOM      9  H   PHE A   6      25.229  -3.923   1.622  0.00  0.00    +0.150 HD
BRANCH   8  10
ATOM     10  CA  PHE A   6      26.513  -3.675  -0.113  0.00  0.00    +0.153 C 
BRANCH  10  11
ATOM     11  C   PHE A   6      27.321  -2.362   0.069  0.00  0.00    +0.241 C 
ATOM     12  N   LEU A   7      26.810  -1.450   0.923  0.00  0.00    -0.298 N 
ATOM     13  H   LEU A   7      25.956  -1.710   1.456  0.00  0.00    +0.150 HD
ATOM     14  O   PHE A   6      28.366  -2.182  -0.556  0.00  0.00    -0.273 OA
BRANCH  12  15
ATOM     15  CA  LEU A   7      27.377  -0.118   1.150  0.00  0.00    +0.137 C 
BRANCH  15  16
ATOM     16  C   LEU A   7      28.713  -0.030   1.851  0.00  0.00    +0.227 C 
ATOM     17  O   LEU A   7      29.515   0.832   1.490  0.00  0.00    -0.286 OA
ENDBRANCH  15  16
BRANCH  15  18
ATOM     18  CB  LEU A   7      26.335   0.839   1.767  0.00  0.00    +0.028 C 
BRANCH  18  19
ATOM     19  CG  LEU A   7      25.051   1.057   0.972  0.00  0.00    +0.002 C 
ATOM     20  CD2 LEU A   7      24.038   1.859   1.790  0.00  0.00    +0.000 C 
ATOM     21  CD1 LEU A   7      25.330   1.713  -0.375  0.00  0.00    +0.000 C 
ENDBRANCH  18  19
ENDBRANCH  15  18
ENDBRANCH  12  15
ENDBRANCH  10  11
BRANCH  10  22
ATOM     22  CB  PHE A   6      25.281  -3.419  -1.011  0.00  0.00    +0.055 C 
BRANCH  22  23
ATOM     23  CG  PHE A   6      25.653  -2.747  -2.324  0.00  0.00    -0.020 A 
ATOM     24  CD2 PHE A   6      25.543  -1.366  -2.475  0.00  0.00    -0.004 A 
ATOM     25  CE2 PHE A   6      25.956  -0.738  -3.652  0.00  0.00    -0.000 A 
ATOM     26  CZ  PHE A   6      26.487  -1.486  -4.688  0.00  0.00    -0.000 A 
ATOM     27  CE1 PHE A   6      26.595  -2.860  -4.561  0.00  0.00    -0.000 A 
ATOM     28  CD1 PHE A   6      26.177  -3.488  -3.380  0.00  0.00    -0.004 A 
ENDBRANCH  22  23
ENDBRANCH  10  22
ENDBRANCH   8  10
ENDBRANCH   5   6
BRANCH   5  29
ATOM     29  CB  SER A   5      25.783  -6.808   3.339  0.00  0.00    +0.166 C 
BRANCH  29  30
ATOM     30  OG  SER A   5      24.678  -6.829   2.453  0.00  0.00    -0.380 OA
ATOM     31  H   SER A   5      24.239  -7.715   2.495  0.00  0.00    +0.211 HD
ENDBRANCH  29  30
ENDBRANCH   5  29
ENDBRANCH   2   5
BRANCH   1  32
ATOM     32  CA  VAL A   4      25.166  -2.173   4.885  0.00  0.00    +0.149 C 
BRANCH  32  34
ATOM     33  C   SER A   3      23.494  -2.300   3.035  0.00  0.00    +0.243 C 
ATOM     34  N   VAL A   4      23.835  -2.404   4.331  0.00  0.00    -0.297 N 
ATOM     35  H   VAL A   4      23.084  -2.673   4.998  0.00  0.00    +0.150 HD
ATOM     36  O   SER A   3      24.278  -1.975   2.138  0.00  0.00    -0.273 OA
BRANCH  33  37
ATOM     37  CA  SER A   3      22.071  -2.691   2.699  0.00  0.00    +0.178 C 
BRANCH  37  40
ATOM     38  C   ALA A   2      21.214  -0.859   1.347  0.00  0.00    +0.241 C 
ATOM     39  O   ALA A   2      21.118  -0.135   2.345  0.00  0.00    -0.273 OA
ATOM     40  N   SER A   3      21.651  -2.126   1.418  0.00  0.00    -0.295 N 
ATOM     41  H   SER A   3      21.691  -2.709   0.557  0.00  0.00    +0.150 HD
BRANCH  38  42
ATOM     42  CA  ALA A   2      20.812  -0.311  -0.033  0.00  0.00    +0.149 C 
ATOM     43  CB  ALA A   2      21.989  -0.420  -1.018  0.00  0.00    +0.031 C 
BRANCH  42  45
ATOM     44  C   LEU A   1      19.736   1.832  -0.748  0.00  0.00    +0.238 C 
ATOM     45  N   ALA A   2      20.409   1.088   0.139  0.00  0.00    -0.297 N 
ATOM     46  H   ALA A   2      20.671   1.546   1.035  0.00  0.00    +0.150 HD
ATOM     47  O   LEU A   1      19.421   1.430  -1.872  0.00  0.00    -0.274 OA
BRANCH  44  48
ATOM     48  CA  LEU A   1      19.386   3.254  -0.310  0.00  0.00    +0.145 C 
BRANCH  48  49
ATOM     49  N   LEU A   1      19.725   4.153  -1.402  0.00  0.00    -0.238 NA
ATOM     50  H   LEU A   1      19.610   3.786  -2.368  0.00  0.00    +0.142 HD
ENDBRANCH  48  49
BRANCH  48  51
ATOM     51  CB  LEU A   1      17.878   3.385   0.027  0.00  0.00    +0.026 C 
BRANCH  51  52
ATOM     52  CG  LEU A   1      17.217   2.348   0.954  0.00  0.00    +0.002 C 
ATOM     53  CD2 LEU A   1      17.640   2.536   2.402  0.00  0.00    +0.000 C 
ATOM     54  CD1 LEU A   1      15.695   2.450   0.886  0.00  0.00    +0.000 C 
ENDBRANCH  51  52
ENDBRANCH  48  51
ENDBRANCH  44  48
ENDBRANCH  42  45
ENDBRANCH  38  42
ENDBRANCH  37  40
BRANCH  37  55
ATOM     55  CB  SER A   3      21.934  -4.217   2.717  0.00  0.00    +0.166 C 
BRANCH  55  56
ATOM     56  OG  SER A   3      22.913  -4.851   1.915  0.00  0.00    -0.380 OA
ATOM     57  H   SER A   3      22.820  -4.544   0.978  0.00  0.00    +0.211 HD
ENDBRANCH  55  56
ENDBRANCH  37  55
ENDBRANCH  33  37
ENDBRANCH  32  34
BRANCH  32  58
ATOM     58  CB  VAL A   4      25.124  -2.281   6.444  0.00  0.00    +0.027 C 
ATOM     59  CG2 VAL A   4      26.524  -2.156   7.056  0.00  0.00    +0.002 C 
ATOM     60  CG1 VAL A   4      24.179  -1.228   7.040  0.00  0.00    +0.002 C 
ENDBRANCH  32  58
ENDBRANCH   1  32
TORSDOF 25
REMARK  Name = ../refined-set-2016/4pox/4pox_pocket.pdb
REMARK  228 active torsions:
REMARK  status: ('A' for Active; 'I' for Inactive)
REMARK    1  A    between atoms: _1  and  _3
REMARK    2  A    between atoms: _3  and  _4
REMARK    3  A    between atoms: _3  and  _6
REMARK    4  A    between atoms: _6  and  _7
REMARK    5  A    between atoms: _10  and  _12
REMARK    6  A    between atoms: _12  and  _13
REMARK    7  A    between atoms: _12  and  _15
REMARK    8  A    between atoms: _15  and  _16
REMARK    9  A    between atoms: _16  and  _17
REMARK   10  A    between atoms: _20  and  _22
REMARK   11  A    between atoms: _22  and  _23
REMARK   12  A    between atoms: _25  and  _27
REMARK   13  A    between atoms: _27  and  _28
REMARK   14  A    between atoms: _27  and  _30
REMARK   15  A    between atoms: _30  and  _31
REMARK   16  A    between atoms: _33  and  _35
REMARK   17  A    between atoms: _35  and  _36
REMARK   18  A    between atoms: _35  and  _38
REMARK   19  A    between atoms: _38  and  _39
REMARK   20  A    between atoms: _44  and  _45
REMARK   21  A    between atoms: _47  and  _49
REMARK   22  A    between atoms: _49  and  _50
REMARK   23  A    between atoms: _53  and  _55
REMARK   24  A    between atoms: _55  and  _56
REMARK   25  A    between atoms: _55  and  _58
REMARK   26  A    between atoms: _58  and  _59
REMARK   27  A    between atoms: _64  and  _65
REMARK   28  A    between atoms: _67  and  _69
REMARK   29  A    between atoms: _69  and  _70
REMARK   30  A    between atoms: _69  and  _72
REMARK   31  A    between atoms: _72  and  _73
REMARK   32  A    between atoms: _78  and  _80
REMARK   33  A    between atoms: _80  and  _81
REMARK   34  A    between atoms: _80  and  _83
REMARK   35  A    between atoms: _83  and  _84
REMARK   36  A    between atoms: _90  and  _92
REMARK   37  A    between atoms: _92  and  _93
REMARK   38  A    between atoms: _92  and  _95
REMARK   39  A    between atoms: _95  and  _96
REMARK   40  A    between atoms: _99  and  _101
REMARK   41  A    between atoms: _101  and  _102
REMARK   42  A    between atoms: _101  and  _104
REMARK   43  A    between atoms: _104  and  _105
REMARK   44  A    between atoms: _105  and  _106
REMARK   45  A    between atoms: _111  and  _113
REMARK   46  A    between atoms: _113  and  _114
REMARK   47  A    between atoms: _117  and  _119
REMARK   48  A    between atoms: _119  and  _120
REMARK   49  A    between atoms: _119  and  _122
REMARK   50  A    between atoms: _122  and  _123
REMARK   51  A    between atoms: _133  and  _135
REMARK   52  A    between atoms: _135  and  _136
REMARK   53  A    between atoms: _135  and  _138
REMARK   54  A    between atoms: _138  and  _139
REMARK   55  A    between atoms: _142  and  _144
REMARK   56  A    between atoms: _144  and  _145
REMARK   57  A    between atoms: _144  and  _147
REMARK   58  A    between atoms: _147  and  _148
REMARK   59  A    between atoms: _151  and  _153
REMARK   60  A    between atoms: _153  and  _154
REMARK   61  A    between atoms: _153  and  _156
REMARK   62  A    between atoms: _156  and  _157
REMARK   63  A    between atoms: _160  and  _162
REMARK   64  A    between atoms: _162  and  _163
REMARK   65  A    between atoms: _162  and  _165
REMARK   66  A    between atoms: _165  and  _166
REMARK   67  A    between atoms: _166  and  _167
REMARK   68  A    between atoms: _169  and  _171
REMARK   69  A    between atoms: _171  and  _172
REMARK   70  A    between atoms: _175  and  _177
REMARK   71  A    between atoms: _177  and  _178
REMARK   72  A    between atoms: _181  and  _183
REMARK   73  A    between atoms: _183  and  _184
REMARK   74  A    between atoms: _183  and  _186
REMARK   75  A    between atoms: _186  and  _187
REMARK   76  A    between atoms: _187  and  _188
REMARK   77  A    between atoms: _190  and  _192
REMARK   78  A    between atoms: _192  and  _193
REMARK   79  A    between atoms: _195  and  _197
REMARK   80  A    between atoms: _197  and  _198
REMARK   81  A    between atoms: _197  and  _200
REMARK   82  A    between atoms: _200  and  _201
REMARK   83  A    between atoms: _204  and  _206
REMARK   84  A    between atoms: _206  and  _207
REMARK   85  A    between atoms: _206  and  _209
REMARK   86  A    between atoms: _209  and  _210
REMARK   87  A    between atoms: _210  and  _211
REMARK   88  A    between atoms: _216  and  _218
REMARK   89  A    between atoms: _218  and  _219
REMARK   90  A    between atoms: _218  and  _221
REMARK   91  A    between atoms: _221  and  _222
REMARK   92  A    between atoms: _222  and  _223
REMARK   93  A    between atoms: _223  and  _224
REMARK   94  A    between atoms: _233  and  _235
REMARK   95  A    between atoms: _235  and  _236
REMARK   96  A    between atoms: _235  and  _238
REMARK   97  A    between atoms: _238  and  _239
REMARK   98  A    between atoms: _246  and  _247
REMARK   99  A    between atoms: _252  and  _254
REMARK  100  A    between atoms: _254  and  _255
REMARK  101  A    between atoms: _254  and  _257
REMARK  102  A    between atoms: _257  and  _258
REMARK  103  A    between atoms: _263  and  _264
REMARK  104  A    between atoms: _266  and  _268
REMARK  105  A    between atoms: _268  and  _269
REMARK  106  A    between atoms: _268  and  _271
REMARK  107  A    between atoms: _271  and  _272
REMARK  108  A    between atoms: _275  and  _277
REMARK  109  A    between atoms: _277  and  _278
REMARK  110  A    between atoms: _277  and  _280
REMARK  111  A    between atoms: _280  and  _281
REMARK  112  A    between atoms: _284  and  _286
REMARK  113  A    between atoms: _286  and  _287
REMARK  114  A    between atoms: _286  and  _289
REMARK  115  A    between atoms: _289  and  _290
REMARK  116  A    between atoms: _294  and  _295
REMARK  117  A    between atoms: _300  and  _302
REMARK  118  A    between atoms: _302  and  _303
REMARK  119  A    between atoms: _302  and  _305
REMARK  120  A    between atoms: _305  and  _306
REMARK  121  A    between atoms: _306  and  _307
REMARK  122  A    between atoms: _309  and  _311
REMARK  123  A    between atoms: _311  and  _312
REMARK  124  A    between atoms: _311  and  _314
REMARK  125  A    between atoms: _314  and  _315
REMARK  126  A    between atoms: _318  and  _320
REMARK  127  A    between atoms: _320  and  _321
REMARK  128  A    between atoms: _320  and  _323
REMARK  129  A    between atoms: _323  and  _324
REMARK  130  A    between atoms: _324  and  _325
REMARK  131  A    between atoms: _330  and  _332
REMARK  132  A    between atoms: _332  and  _333
REMARK  133  A    between atoms: _336  and  _338
REMARK  134  A    between atoms: _338  and  _339
REMARK  135  A    between atoms: _341  and  _343
REMARK  136  A    between atoms: _343  and  _344
REMARK  137  A    between atoms: _343  and  _346
REMARK  138  A    between atoms: _346  and  _347
REMARK  139  A    between atoms: _350  and  _352
REMARK  140  A    between atoms: _352  and  _353
REMARK  141  A    between atoms: _352  and  _355
REMARK  142  A    between atoms: _355  and  _356
REMARK  143  A    between atoms: _358  and  _360
REMARK  144  A    between atoms: _360  and  _361
REMARK  145  A    between atoms: _360  and  _363
REMARK  146  A    between atoms: _363  and  _364
REMARK  147  A    between atoms: _369  and  _371
REMARK  148  A    between atoms: _371  and  _372
REMARK  149  A    between atoms: _371  and  _374
REMARK  150  A    between atoms: _374  and  _375
REMARK  151  A    between atoms: _375  and  _376
REMARK  152  A    between atoms: _379  and  _381
REMARK  153  A    between atoms: _381  and  _382
REMARK  154  A    between atoms: _385  and  _387
REMARK  155  A    between atoms: _387  and  _388
REMARK  156  A    between atoms: _387  and  _390
REMARK  157  A    between atoms: _390  and  _391
REMARK  158  A    between atoms: _397  and  _399
REMARK  159  A    between atoms: _399  and  _400
REMARK  160  A    between atoms: _399  and  _402
REMARK  161  A    between atoms: _402  and  _403
REMARK  162  A    between atoms: _406  and  _408
REMARK  163  A    between atoms: _408  and  _409
REMARK  164  A    between atoms: _408  and  _411
REMARK  165  A    between atoms: _411  and  _412
REMARK  166  A    between atoms: _415  and  _417
REMARK  167  A    between atoms: _417  and  _418
REMARK  168  A    between atoms: _417  and  _420
REMARK  169  A    between atoms: _420  and  _421
REMARK  170  A    between atoms: _424  and  _426
REMARK  171  A    between atoms: _426  and  _427
REMARK  172  A    between atoms: _426  and  _429
REMARK  173  A    between atoms: _429  and  _430
REMARK  174  A    between atoms: _433  and  _435
REMARK  175  A    between atoms: _435  and  _436
REMARK  176  A    between atoms: _435  and  _438
REMARK  177  A    between atoms: _438  and  _439
REMARK  178  A    between atoms: _442  and  _444
REMARK  179  A    between atoms: _444  and  _445
REMARK  180  A    between atoms: _448  and  _450
REMARK  181  A    between atoms: _450  and  _451
REMARK  182  A    between atoms: _450  and  _453
REMARK  183  A    between atoms: _453  and  _454
REMARK  184  A    between atoms: _456  and  _458
REMARK  185  A    between atoms: _458  and  _459
REMARK  186  A    between atoms: _458  and  _461
REMARK  187  A    between atoms: _464  and  _466
REMARK  188  A    between atoms: _466  and  _467
REMARK  189  A    between atoms: _466  and  _469
REMARK  190  A    between atoms: _469  and  _470
REMARK  191  A    between atoms: _472  and  _474
REMARK  192  A    between atoms: _474  and  _475
REMARK  193  A    between atoms: _474  and  _477
REMARK  194  A    between atoms: _477  and  _478
REMARK  195  A    between atoms: _484  and  _486
REMARK  196  A    between atoms: _486  and  _487
REMARK  197  A    between atoms: _486  and  _489
REMARK  198  A    between atoms: _489  and  _490
REMARK  199  A    between atoms: _493  and  _495
REMARK  200  A    between atoms: _495  and  _496
REMARK  201  A    between atoms: _498  and  _500
REMARK  202  A    between atoms: _500  and  _501
REMARK  203  A    between atoms: _500  and  _503
REMARK  204  A    between atoms: _503  and  _504
REMARK  205  A    between atoms: _507  and  _509
REMARK  206  A    between atoms: _509  and  _510
REMARK  207  A    between atoms: _509  and  _512
REMARK  208  A    between atoms: _512  and  _513
REMARK  209  A    between atoms: _519  and  _521
REMARK  210  A    between atoms: _521  and  _522
REMARK  211  A    between atoms: _524  and  _526
REMARK  212  A    between atoms: _526  and  _527
REMARK  213  A    between atoms: _526  and  _529
REMARK  214  A    between atoms: _529  and  _530
REMARK  215  A    between atoms: _530  and  _531
REMARK  216  A    between atoms: _531  and  _532
REMARK  217  A    between atoms: _532  and  _533
REMARK  218  A    between atoms: _537  and  _539
REMARK  219  A    between atoms: _539  and  _540
REMARK  220  A    between atoms: _542  and  _544
REMARK  221  A    between atoms: _544  and  _545
REMARK  222  A    between atoms: _544  and  _547
REMARK  223  A    between atoms: _550  and  _552
REMARK  224  A    between atoms: _552  and  _553
REMARK  225  A    between atoms: _555  and  _557
REMARK  226  A    between atoms: _557  and  _558
REMARK  227  A    between atoms: _557  and  _560
REMARK  228  A    between atoms: _560  and  _561
REMARK                            x       y       z     vdW  Elec       q    Type
REMARK                         _______ _______ _______ _____ _____    ______ ____
ROOT
ATOM      1  CA  GLY A   1      12.342  -5.844   8.952  0.00  0.00    +0.156 C 
ENDROOT
BRANCH   1   2
ATOM      2  N   GLY A   1      13.732  -5.397   8.968  0.00  0.00    -0.238 NA
ATOM      3  H   GLY A   1      14.460  -6.003   8.540  0.00  0.00    +0.142 HD
ENDBRANCH   1   2
BRANCH   1   4
ATOM      4  C   GLY A   1      11.402  -5.083   8.048  0.00  0.00    +0.226 C 
ATOM      5  O   GLY A   1      11.836  -4.303   7.200  0.00  0.00    -0.287 OA
ENDBRANCH   1   4
TORSDOF 2
REMARK  Name = ../refined-set-2016/4pox/4pox_pocket.pdb
REMARK  228 active torsions:
REMARK  status: ('A' for Active; 'I' for Inactive)
REMARK    1  A    between atoms: _1  and  _3
REMARK    2  A    between atoms: _3  and  _4
REMARK    3  A    between atoms: _3  and  _6
REMARK    4  A    between atoms: _6  and  _7
REMARK    5  A    between atoms: _10  and  _12
REMARK    6  A    between atoms: _12  and  _13
REMARK    7  A    between atoms: _12  and  _15
REMARK    8  A    between atoms: _15  and  _16
REMARK    9  A    between atoms: _16  and  _17
REMARK   10  A    between atoms: _20  and  _22
REMARK   11  A    between atoms: _22  and  _23
REMARK   12  A    between atoms: _25  and  _27
REMARK   13  A    between atoms: _27  and  _28
REMARK   14  A    between atoms: _27  and  _30
REMARK   15  A    between atoms: _30  and  _31
REMARK   16  A    between atoms: _33  and  _35
REMARK   17  A    between atoms: _35  and  _36
REMARK   18  A    between atoms: _35  and  _38
REMARK   19  A    between atoms: _38  and  _39
REMARK   20  A    between atoms: _44  and  _45
REMARK   21  A    between atoms: _47  and  _49
REMARK   22  A    between atoms: _49  and  _50
REMARK   23  A    between atoms: _53  and  _55
REMARK   24  A    between atoms: _55  and  _56
REMARK   25  A    between atoms: _55  and  _58
REMARK   26  A    between atoms: _58  and  _59
REMARK   27  A    between atoms: _64  and  _65
REMARK   28  A    between atoms: _67  and  _69
REMARK   29  A    between atoms: _69  and  _70
REMARK   30  A    between atoms: _69  and  _72
REMARK   31  A    between atoms: _72  and  _73
REMARK   32  A    between atoms: _78  and  _80
REMARK   33  A    between atoms: _80  and  _81
REMARK   34  A    between atoms: _80  and  _83
REMARK   35  A    between atoms: _83  and  _84
REMARK   36  A    between atoms: _90  and  _92
REMARK   37  A    between atoms: _92  and  _93
REMARK   38  A    between atoms: _92  and  _95
REMARK   39  A    between atoms: _95  and  _96
REMARK   40  A    between atoms: _99  and  _101
REMARK   41  A    between atoms: _101  and  _102
REMARK   42  A    between atoms: _101  and  _104
REMARK   43  A    between atoms: _104  and  _105
REMARK   44  A    between atoms: _105  and  _106
REMARK   45  A    between atoms: _111  and  _113
REMARK   46  A    between atoms: _113  and  _114
REMARK   47  A    between atoms: _117  and  _119
REMARK   48  A    between atoms: _119  and  _120
REMARK   49  A    between atoms: _119  and  _122
REMARK   50  A    between atoms: _122  and  _123
REMARK   51  A    between atoms: _133  and  _135
REMARK   52  A    between atoms: _135  and  _136
REMARK   53  A    between atoms: _135  and  _138
REMARK   54  A    between atoms: _138  and  _139
REMARK   55  A    between atoms: _142  and  _144
REMARK   56  A    between atoms: _144  and  _145
REMARK   57  A    between atoms: _144  and  _147
REMARK   58  A    between atoms: _147  and  _148
REMARK   59  A    between atoms: _151  and  _153
REMARK   60  A    between atoms: _153  and  _154
REMARK   61  A    between atoms: _153  and  _156
REMARK   62  A    between atoms: _156  and  _157
REMARK   63  A    between atoms: _160  and  _162
REMARK   64  A    between atoms: _162  and  _163
REMARK   65  A    between atoms: _162  and  _165
REMARK   66  A    between atoms: _165  and  _166
REMARK   67  A    between atoms: _166  and  _167
REMARK   68  A    between atoms: _169  and  _171
REMARK   69  A    between atoms: _171  and  _172
REMARK   70  A    between atoms: _175  and  _177
REMARK   71  A    between atoms: _177  and  _178
REMARK   72  A    between atoms: _181  and  _183
REMARK   73  A    between atoms: _183  and  _184
REMARK   74  A    between atoms: _183  and  _186
REMARK   75  A    between atoms: _186  and  _187
REMARK   76  A    between atoms: _187  and  _188
REMARK   77  A    between atoms: _190  and  _192
REMARK   78  A    between atoms: _192  and  _193
REMARK   79  A    between atoms: _195  and  _197
REMARK   80  A    between atoms: _197  and  _198
REMARK   81  A    between atoms: _197  and  _200
REMARK   82  A    between atoms: _200  and  _201
REMARK   83  A    between atoms: _204  and  _206
REMARK   84  A    between atoms: _206  and  _207
REMARK   85  A    between atoms: _206  and  _209
REMARK   86  A    between atoms: _209  and  _210
REMARK   87  A    between atoms: _210  and  _211
REMARK   88  A    between atoms: _216  and  _218
REMARK   89  A    between atoms: _218  and  _219
REMARK   90  A    between atoms: _218  and  _221
REMARK   91  A    between atoms: _221  and  _222
REMARK   92  A    between atoms: _222  and  _223
REMARK   93  A    between atoms: _223  and  _224
REMARK   94  A    between atoms: _233  and  _235
REMARK   95  A    between atoms: _235  and  _236
REMARK   96  A    between atoms: _235  and  _238
REMARK   97  A    between atoms: _238  and  _239
REMARK   98  A    between atoms: _246  and  _247
REMARK   99  A    between atoms: _252  and  _254
REMARK  100  A    between atoms: _254  and  _255
REMARK  101  A    between atoms: _254  and  _257
REMARK  102  A    between atoms: _257  and  _258
REMARK  103  A    between atoms: _263  and  _264
REMARK  104  A    between atoms: _266  and  _268
REMARK  105  A    between atoms: _268  and  _269
REMARK  106  A    between atoms: _268  and  _271
REMARK  107  A    between atoms: _271  and  _272
REMARK  108  A    between atoms: _275  and  _277
REMARK  109  A    between atoms: _277  and  _278
REMARK  110  A    between atoms: _277  and  _280
REMARK  111  A    between atoms: _280  and  _281
REMARK  112  A    between atoms: _284  and  _286
REMARK  113  A    between atoms: _286  and  _287
REMARK  114  A    between atoms: _286  and  _289
REMARK  115  A    between atoms: _289  and  _290
REMARK  116  A    between atoms: _294  and  _295
REMARK  117  A    between atoms: _300  and  _302
REMARK  118  A    between atoms: _302  and  _303
REMARK  119  A    between atoms: _302  and  _305
REMARK  120  A    between atoms: _305  and  _306
REMARK  121  A    between atoms: _306  and  _307
REMARK  122  A    between atoms: _309  and  _311
REMARK  123  A    between atoms: _311  and  _312
REMARK  124  A    between atoms: _311  and  _314
REMARK  125  A    between atoms: _314  and  _315
REMARK  126  A    between atoms: _318  and  _320
REMARK  127  A    between atoms: _320  and  _321
REMARK  128  A    between atoms: _320  and  _323
REMARK  129  A    between atoms: _323  and  _324
REMARK  130  A    between atoms: _324  and  _325
REMARK  131  A    between atoms: _330  and  _332
REMARK  132  A    between atoms: _332  and  _333
REMARK  133  A    between atoms: _336  and  _338
REMARK  134  A    between atoms: _338  and  _339
REMARK  135  A    between atoms: _341  and  _343
REMARK  136  A    between atoms: _343  and  _344
REMARK  137  A    between atoms: _343  and  _346
REMARK  138  A    between atoms: _346  and  _347
REMARK  139  A    between atoms: _350  and  _352
REMARK  140  A    between atoms: _352  and  _353
REMARK  141  A    between atoms: _352  and  _355
REMARK  142  A    between atoms: _355  and  _356
REMARK  143  A    between atoms: _358  and  _360
REMARK  144  A    between atoms: _360  and  _361
REMARK  145  A    between atoms: _360  and  _363
REMARK  146  A    between atoms: _363  and  _364
REMARK  147  A    between atoms: _369  and  _371
REMARK  148  A    between atoms: _371  and  _372
REMARK  149  A    between atoms: _371  and  _374
REMARK  150  A    between atoms: _374  and  _375
REMARK  151  A    between atoms: _375  and  _376
REMARK  152  A    between atoms: _379  and  _381
REMARK  153  A    between atoms: _381  and  _382
REMARK  154  A    between atoms: _385  and  _387
REMARK  155  A    between atoms: _387  and  _388
REMARK  156  A    between atoms: _387  and  _390
REMARK  157  A    between atoms: _390  and  _391
REMARK  158  A    between atoms: _397  and  _399
REMARK  159  A    between atoms: _399  and  _400
REMARK  160  A    between atoms: _399  and  _402
REMARK  161  A    between atoms: _402  and  _403
REMARK  162  A    between atoms: _406  and  _408
REMARK  163  A    between atoms: _408  and  _409
REMARK  164  A    between atoms: _408  and  _411
REMARK  165  A    between atoms: _411  and  _412
REMARK  166  A    between atoms: _415  and  _417
REMARK  167  A    between atoms: _417  and  _418
REMARK  168  A    between atoms: _417  and  _420
REMARK  169  A    between atoms: _420  and  _421
REMARK  170  A    between atoms: _424  and  _426
REMARK  171  A    between atoms: _426  and  _427
REMARK  172  A    between atoms: _426  and  _429
REMARK  173  A    between atoms: _429  and  _430
REMARK  174  A    between atoms: _433  and  _435
REMARK  175  A    between atoms: _435  and  _436
REMARK  176  A    between atoms: _435  and  _438
REMARK  177  A    between atoms: _438  and  _439
REMARK  178  A    between atoms: _442  and  _444
REMARK  179  A    between atoms: _444  and  _445
REMARK  180  A    between atoms: _448  and  _450
REMARK  181  A    between atoms: _450  and  _451
REMARK  182  A    between atoms: _450  and  _453
REMARK  183  A    between atoms: _453  and  _454
REMARK  184  A    between atoms: _456  and  _458
REMARK  185  A    between atoms: _458  and  _459
REMARK  186  A    between atoms: _458  and  _461
REMARK  187  A    between atoms: _464  and  _466
REMARK  188  A    between atoms: _466  and  _467
REMARK  189  A    between atoms: _466  and  _469
REMARK  190  A    between atoms: _469  and  _470
REMARK  191  A    between atoms: _472  and  _474
REMARK  192  A    between atoms: _474  and  _475
REMARK  193  A    between atoms: _474  and  _477
REMARK  194  A    between atoms: _477  and  _478
REMARK  195  A    between atoms: _484  and  _486
REMARK  196  A    between atoms: _486  and  _487
REMARK  197  A    between atoms: _486  and  _489
REMARK  198  A    between atoms: _489  and  _490
REMARK  199  A    between atoms: _493  and  _495
REMARK  200  A    between atoms: _495  and  _496
REMARK  201  A    between atoms: _498  and  _500
REMARK  202  A    between atoms: _500  and  _501
REMARK  203  A    between atoms: _500  and  _503
REMARK  204  A    between atoms: _503  and  _504
REMARK  205  A    between atoms: _507  and  _509
REMARK  206  A    between atoms: _509  and  _510
REMARK  207  A    between atoms: _509  and  _512
REMARK  208  A    between atoms: _512  and  _513
REMARK  209  A    between atoms: _519  and  _521
REMARK  210  A    between atoms: _521  and  _522
REMARK  211  A    between atoms: _524  and  _526
REMARK  212  A    between atoms: _526  and  _527
REMARK  213  A    between atoms: _526  and  _529
REMARK  214  A    between atoms: _529  and  _530
REMARK  215  A    between atoms: _530  and  _531
REMARK  216  A    between atoms: _531  and  _532
REMARK  217  A    between atoms: _532  and  _533
REMARK  218  A    between atoms: _537  and  _539
REMARK  219  A    between atoms: _539  and  _540
REMARK  220  A    between atoms: _542  and  _544
REMARK  221  A    between atoms: _544  and  _545
REMARK  222  A    between atoms: _544  and  _547
REMARK  223  A    between atoms: _550  and  _552
REMARK  224  A    between atoms: _552  and  _553
REMARK  225  A    between atoms: _555  and  _557
REMARK  226  A    between atoms: _557  and  _558
REMARK  227  A    between atoms: _557  and  _560
REMARK  228  A    between atoms: _560  and  _561
REMARK                            x       y       z     vdW  Elec       q    Type
REMARK                         _______ _______ _______ _____ _____    ______ ____
ROOT
ATOM      1  CA  LYS A   4      13.960 -11.560   7.102  0.00  0.00    +0.149 C 
ENDROOT
BRANCH   1   4
ATOM      2  C   GLY A   3      13.069  -9.408   6.120  0.00  0.00    +0.243 C 
ATOM      3  O   GLY A   3      13.442  -8.666   7.033  0.00  0.00    -0.273 OA
ATOM      4  N   LYS A   4      13.336 -10.739   6.060  0.00  0.00    -0.297 N 
ATOM      5  H   LYS A   4      13.069 -11.227   5.181  0.00  0.00    +0.150 HD
BRANCH   2   6
ATOM      6  CA  GLY A   3      12.282  -8.859   4.953  0.00  0.00    +0.176 C 
BRANCH   6   8
ATOM      7  C   PHE A   2      13.192  -6.769   4.064  0.00  0.00    +0.241 C 
ATOM      8  N   GLY A   3      12.265  -7.416   4.763  0.00  0.00    -0.295 N 
ATOM      9  H   GLY A   3      11.493  -6.867   5.193  0.00  0.00    +0.150 HD
ATOM     10  O   PHE A   2      14.178  -7.316   3.579  0.00  0.00    -0.273 OA
BRANCH   7  11
ATOM     11  CA  PHE A   2      12.991  -5.264   3.871  0.00  0.00    +0.153 C 
BRANCH  11  13
ATOM     12  C   LEU A   1      10.621  -5.045   3.205  0.00  0.00    +0.238 C 
ATOM     13  N   PHE A   2      11.604  -4.864   4.116  0.00  0.00    -0.297 N 
ATOM     14  H   PHE A   2      11.365  -4.423   5.027  0.00  0.00    +0.150 HD
ATOM     15  O   LEU A   1      10.828  -5.518   2.087  0.00  0.00    -0.274 OA
BRANCH  12  16
ATOM     16  CA  LEU A   1       9.171  -4.679   3.623  0.00  0.00    +0.145 C 
BRANCH  16  17
ATOM     17  N   LEU A   1       9.017  -4.309   5.036  0.00  0.00    -0.238 NA
ATOM     18  H   LEU A   1       8.766  -3.330   5.280  0.00  0.00    +0.142 HD
ENDBRANCH  16  17
BRANCH  16  19
ATOM     19  CB  LEU A   1       8.510  -3.661   2.658  0.00  0.00    +0.026 C 
BRANCH  19  20
ATOM     20  CG  LEU A   1       8.541  -2.200   3.067  0.00  0.00    +0.002 C 
ATOM     21  CD2 LEU A   1       9.961  -1.669   3.078  0.00  0.00    +0.000 C 
ATOM     22  CD1 LEU A   1       7.606  -1.367   2.212  0.00  0.00    +0.000 C 
ENDBRANCH  19  20
ENDBRANCH  16  19
ENDBRANCH  12  16
ENDBRANCH  11  13
BRANCH  11  23
ATOM     23  CB  PHE A   2      13.991  -4.465   4.710  0.00  0.00    +0.055 C 
BRANCH  23  24
ATOM     24  CG  PHE A   2      14.139  -3.015   4.317  0.00  0.00    -0.020 A 
ATOM     25  CD2 PHE A   2      14.171  -2.016   5.289  0.00  0.00    -0.004 A 
ATOM     26  CE2 PHE A   2      14.353  -0.680   4.930  0.00  0.00    -0.000 A 
ATOM     27  CZ  PHE A   2      14.517  -0.341   3.602  0.00  0.00    -0.000 A 
ATOM     28  CE1 PHE A   2      14.501  -1.316   2.626  0.00  0.00    -0.000 A 
ATOM     29  CD1 PHE A   2      14.321  -2.650   2.981  0.00  0.00    -0.004 A 
ENDBRANCH  23  24
ENDBRANCH  11  23
ENDBRANCH   7  11
ENDBRANCH   6   8
ENDBRANCH   2   6
ENDBRANCH   1   4
BRANCH   1  30
ATOM     30  C   LYS A   4      15.424 -11.996   6.859  0.00  0.00    +0.241 C 
ATOM     31  O   LYS A   4      15.913 -12.893   7.545  0.00  0.00    -0.273 OA
ATOM     32  N   GLY A   5      16.109 -11.361   5.916  0.00  0.00    -0.295 N 
ATOM     33  H   GLY A   5      15.640 -10.595   5.392  0.00  0.00    +0.150 HD
BRANCH  32  34
ATOM     34  CA  GLY A   5      17.495 -11.691   5.580  0.00  0.00    +0.176 C 
BRANCH  34  35
ATOM     35  C   GLY A   5      17.646 -12.183   4.156  0.00  0.00    +0.243 C 
ATOM     36  N   VAL A   6      18.874 -12.585   3.767  0.00  0.00    -0.297 N 
ATOM     37  H   VAL A   6      19.644 -12.538   4.465  0.00  0.00    +0.150 HD
ATOM     38  O   GLY A   5      16.670 -12.188   3.411  0.00  0.00    -0.273 OA
BRANCH  36  39
ATOM     39  CA  VAL A   6      19.197 -13.085   2.423  0.00  0.00    +0.149 C 
BRANCH  39  40
ATOM     40  C   VAL A   6      19.009 -14.606   2.397  0.00  0.00    +0.241 C 
ATOM     41  O   VAL A   6      19.592 -15.311   3.217  0.00  0.00    -0.273 OA
ATOM     42  N   GLY A   7      18.205 -15.093   1.454  0.00  0.00    -0.296 N 
ATOM     43  H   GLY A   7      17.759 -14.430   0.788  0.00  0.00    +0.150 HD
BRANCH  42  44
ATOM     44  CA  GLY A   7      17.924 -16.517   1.316  0.00  0.00    +0.163 C 
BRANCH  44  45
ATOM     45  C   GLY A   7      17.989 -17.001  -0.116  0.00  0.00    +0.229 C 
ATOM     46  O   GLY A   7      18.110 -16.198  -1.050  0.00  0.00    -0.286 OA
ENDBRANCH  44  45
ENDBRANCH  42  44
ENDBRANCH  39  40
BRANCH  39  47
ATOM     47  CB  VAL A   6      20.629 -12.671   1.957  0.00  0.00    +0.027 C 
ATOM     48  CG2 VAL A   6      20.900 -11.185   2.202  0.00  0.00    +0.002 C 
ATOM     49  CG1 VAL A   6      20.850 -13.005   0.489  0.00  0.00    +0.002 C 
ENDBRANCH  39  47
ENDBRANCH  36  39
ENDBRANCH  34  35
ENDBRANCH  32  34
ENDBRANCH   1  30
BRANCH   1  50
ATOM     50  CB  LYS A   4      13.080 -12.809   7.364  0.00  0.00    +0.029 C 
BRANCH  50  51
ATOM     51  CG  LYS A   4      11.572 -12.546   7.445  0.00  0.00    +0.000 C 
BRANCH  51  52
ATOM     52  CD  LYS A   4      10.810 -13.822   7.757  0.00  0.00    -0.024 C 
BRANCH  52  53
ATOM     53  CE  LYS A   4       9.621 -14.034   6.856  0.00  0.00    -0.086 C 
BRANCH  53  54
ATOM     54  NZ  LYS A   4       8.899 -15.294   7.187  0.00  0.00    +0.380 N 
ATOM     55  HZ1 LYS A   4       8.563 -15.251   8.170  0.00  0.00    -0.089 HD
ATOM     56  HZ2 LYS A   4       9.544 -16.102   7.075  0.00  0.00    -0.089 HD
ATOM     57  HZ3 LYS A   4       8.087 -15.406   6.546  0.00  0.00    -0.089 HD
ENDBRANCH  53  54
ENDBRANCH  52  53
ENDBRANCH  51  52
ENDBRANCH  50  51
ENDBRANCH   1  50
TORSDOF 24
REMARK  Name = ../refined-set-2016/4pox/4pox_pocket.pdb
REMARK  228 active torsions:
REMARK  status: ('A' for Active; 'I' for Inactive)
REMARK    1  A    between atoms: _1  and  _3
REMARK    2  A    between atoms: _3  and  _4
REMARK    3  A    between atoms: _3  and  _6
REMARK    4  A    between atoms: _6  and  _7
REMARK    5  A    between atoms: _10  and  _12
REMARK    6  A    between atoms: _12  and  _13
REMARK    7  A    between atoms: _12  and  _15
REMARK    8  A    between atoms: _15  and  _16
REMARK    9  A    between atoms: _16  and  _17
REMARK   10  A    between atoms: _20  and  _22
REMARK   11  A    between atoms: _22  and  _23
REMARK   12  A    between atoms: _25  and  _27
REMARK   13  A    between atoms: _27  and  _28
REMARK   14  A    between atoms: _27  and  _30
REMARK   15  A    between atoms: _30  and  _31
REMARK   16  A    between atoms: _33  and  _35
REMARK   17  A    between atoms: _35  and  _36
REMARK   18  A    between atoms: _35  and  _38
REMARK   19  A    between atoms: _38  and  _39
REMARK   20  A    between atoms: _44  and  _45
REMARK   21  A    between atoms: _47  and  _49
REMARK   22  A    between atoms: _49  and  _50
REMARK   23  A    between atoms: _53  and  _55
REMARK   24  A    between atoms: _55  and  _56
REMARK   25  A    between atoms: _55  and  _58
REMARK   26  A    between atoms: _58  and  _59
REMARK   27  A    between atoms: _64  and  _65
REMARK   28  A    between atoms: _67  and  _69
REMARK   29  A    between atoms: _69  and  _70
REMARK   30  A    between atoms: _69  and  _72
REMARK   31  A    between atoms: _72  and  _73
REMARK   32  A    between atoms: _78  and  _80
REMARK   33  A    between atoms: _80  and  _81
REMARK   34  A    between atoms: _80  and  _83
REMARK   35  A    between atoms: _83  and  _84
REMARK   36  A    between atoms: _90  and  _92
REMARK   37  A    between atoms: _92  and  _93
REMARK   38  A    between atoms: _92  and  _95
REMARK   39  A    between atoms: _95  and  _96
REMARK   40  A    between atoms: _99  and  _101
REMARK   41  A    between atoms: _101  and  _102
REMARK   42  A    between atoms: _101  and  _104
REMARK   43  A    between atoms: _104  and  _105
REMARK   44  A    between atoms: _105  and  _106
REMARK   45  A    between atoms: _111  and  _113
REMARK   46  A    between atoms: _113  and  _114
REMARK   47  A    between atoms: _117  and  _119
REMARK   48  A    between atoms: _119  and  _120
REMARK   49  A    between atoms: _119  and  _122
REMARK   50  A    between atoms: _122  and  _123
REMARK   51  A    between atoms: _133  and  _135
REMARK   52  A    between atoms: _135  and  _136
REMARK   53  A    between atoms: _135  and  _138
REMARK   54  A    between atoms: _138  and  _139
REMARK   55  A    between atoms: _142  and  _144
REMARK   56  A    between atoms: _144  and  _145
REMARK   57  A    between atoms: _144  and  _147
REMARK   58  A    between atoms: _147  and  _148
REMARK   59  A    between atoms: _151  and  _153
REMARK   60  A    between atoms: _153  and  _154
REMARK   61  A    between atoms: _153  and  _156
REMARK   62  A    between atoms: _156  and  _157
REMARK   63  A    between atoms: _160  and  _162
REMARK   64  A    between atoms: _162  and  _163
REMARK   65  A    between atoms: _162  and  _165
REMARK   66  A    between atoms: _165  and  _166
REMARK   67  A    between atoms: _166  and  _167
REMARK   68  A    between atoms: _169  and  _171
REMARK   69  A    between atoms: _171  and  _172
REMARK   70  A    between atoms: _175  and  _177
REMARK   71  A    between atoms: _177  and  _178
REMARK   72  A    between atoms: _181  and  _183
REMARK   73  A    between atoms: _183  and  _184
REMARK   74  A    between atoms: _183  and  _186
REMARK   75  A    between atoms: _186  and  _187
REMARK   76  A    between atoms: _187  and  _188
REMARK   77  A    between atoms: _190  and  _192
REMARK   78  A    between atoms: _192  and  _193
REMARK   79  A    between atoms: _195  and  _197
REMARK   80  A    between atoms: _197  and  _198
REMARK   81  A    between atoms: _197  and  _200
REMARK   82  A    between atoms: _200  and  _201
REMARK   83  A    between atoms: _204  and  _206
REMARK   84  A    between atoms: _206  and  _207
REMARK   85  A    between atoms: _206  and  _209
REMARK   86  A    between atoms: _209  and  _210
REMARK   87  A    between atoms: _210  and  _211
REMARK   88  A    between atoms: _216  and  _218
REMARK   89  A    between atoms: _218  and  _219
REMARK   90  A    between atoms: _218  and  _221
REMARK   91  A    between atoms: _221  and  _222
REMARK   92  A    between atoms: _222  and  _223
REMARK   93  A    between atoms: _223  and  _224
REMARK   94  A    between atoms: _233  and  _235
REMARK   95  A    between atoms: _235  and  _236
REMARK   96  A    between atoms: _235  and  _238
REMARK   97  A    between atoms: _238  and  _239
REMARK   98  A    between atoms: _246  and  _247
REMARK   99  A    between atoms: _252  and  _254
REMARK  100  A    between atoms: _254  and  _255
REMARK  101  A    between atoms: _254  and  _257
REMARK  102  A    between atoms: _257  and  _258
REMARK  103  A    between atoms: _263  and  _264
REMARK  104  A    between atoms: _266  and  _268
REMARK  105  A    between atoms: _268  and  _269
REMARK  106  A    between atoms: _268  and  _271
REMARK  107  A    between atoms: _271  and  _272
REMARK  108  A    between atoms: _275  and  _277
REMARK  109  A    between atoms: _277  and  _278
REMARK  110  A    between atoms: _277  and  _280
REMARK  111  A    between atoms: _280  and  _281
REMARK  112  A    between atoms: _284  and  _286
REMARK  113  A    between atoms: _286  and  _287
REMARK  114  A    between atoms: _286  and  _289
REMARK  115  A    between atoms: _289  and  _290
REMARK  116  A    between atoms: _294  and  _295
REMARK  117  A    between atoms: _300  and  _302
REMARK  118  A    between atoms: _302  and  _303
REMARK  119  A    between atoms: _302  and  _305
REMARK  120  A    between atoms: _305  and  _306
REMARK  121  A    between atoms: _306  and  _307
REMARK  122  A    between atoms: _309  and  _311
REMARK  123  A    between atoms: _311  and  _312
REMARK  124  A    between atoms: _311  and  _314
REMARK  125  A    between atoms: _314  and  _315
REMARK  126  A    between atoms: _318  and  _320
REMARK  127  A    between atoms: _320  and  _321
REMARK  128  A    between atoms: _320  and  _323
REMARK  129  A    between atoms: _323  and  _324
REMARK  130  A    between atoms: _324  and  _325
REMARK  131  A    between atoms: _330  and  _332
REMARK  132  A    between atoms: _332  and  _333
REMARK  133  A    between atoms: _336  and  _338
REMARK  134  A    between atoms: _338  and  _339
REMARK  135  A    between atoms: _341  and  _343
REMARK  136  A    between atoms: _343  and  _344
REMARK  137  A    between atoms: _343  and  _346
REMARK  138  A    between atoms: _346  and  _347
REMARK  139  A    between atoms: _350  and  _352
REMARK  140  A    between atoms: _352  and  _353
REMARK  141  A    between atoms: _352  and  _355
REMARK  142  A    between atoms: _355  and  _356
REMARK  143  A    between atoms: _358  and  _360
REMARK  144  A    between atoms: _360  and  _361
REMARK  145  A    between atoms: _360  and  _363
REMARK  146  A    between atoms: _363  and  _364
REMARK  147  A    between atoms: _369  and  _371
REMARK  148  A    between atoms: _371  and  _372
REMARK  149  A    between atoms: _371  and  _374
REMARK  150  A    between atoms: _374  and  _375
REMARK  151  A    between atoms: _375  and  _376
REMARK  152  A    between atoms: _379  and  _381
REMARK  153  A    between atoms: _381  and  _382
REMARK  154  A    between atoms: _385  and  _387
REMARK  155  A    between atoms: _387  and  _388
REMARK  156  A    between atoms: _387  and  _390
REMARK  157  A    between atoms: _390  and  _391
REMARK  158  A    between atoms: _397  and  _399
REMARK  159  A    between atoms: _399  and  _400
REMARK  160  A    between atoms: _399  and  _402
REMARK  161  A    between atoms: _402  and  _403
REMARK  162  A    between atoms: _406  and  _408
REMARK  163  A    between atoms: _408  and  _409
REMARK  164  A    between atoms: _408  and  _411
REMARK  165  A    between atoms: _411  and  _412
REMARK  166  A    between atoms: _415  and  _417
REMARK  167  A    between atoms: _417  and  _418
REMARK  168  A    between atoms: _417  and  _420
REMARK  169  A    between atoms: _420  and  _421
REMARK  170  A    between atoms: _424  and  _426
REMARK  171  A    between atoms: _426  and  _427
REMARK  172  A    between atoms: _426  and  _429
REMARK  173  A    between atoms: _429  and  _430
REMARK  174  A    between atoms: _433  and  _435
REMARK  175  A    between atoms: _435  and  _436
REMARK  176  A    between atoms: _435  and  _438
REMARK  177  A    between atoms: _438  and  _439
REMARK  178  A    between atoms: _442  and  _444
REMARK  179  A    between atoms: _444  and  _445
REMARK  180  A    between atoms: _448  and  _450
REMARK  181  A    between atoms: _450  and  _451
REMARK  182  A    between atoms: _450  and  _453
REMARK  183  A    between atoms: _453  and  _454
REMARK  184  A    between atoms: _456  and  _458
REMARK  185  A    between atoms: _458  and  _459
REMARK  186  A    between atoms: _458  and  _461
REMARK  187  A    between atoms: _464  and  _466
REMARK  188  A    between atoms: _466  and  _467
REMARK  189  A    between atoms: _466  and  _469
REMARK  190  A    between atoms: _469  and  _470
REMARK  191  A    between atoms: _472  and  _474
REMARK  192  A    between atoms: _474  and  _475
REMARK  193  A    between atoms: _474  and  _477
REMARK  194  A    between atoms: _477  and  _478
REMARK  195  A    between atoms: _484  and  _486
REMARK  196  A    between atoms: _486  and  _487
REMARK  197  A    between atoms: _486  and  _489
REMARK  198  A    between atoms: _489  and  _490
REMARK  199  A    between atoms: _493  and  _495
REMARK  200  A    between atoms: _495  and  _496
REMARK  201  A    between atoms: _498  and  _500
REMARK  202  A    between atoms: _500  and  _501
REMARK  203  A    between atoms: _500  and  _503
REMARK  204  A    between atoms: _503  and  _504
REMARK  205  A    between atoms: _507  and  _509
REMARK  206  A    between atoms: _509  and  _510
REMARK  207  A    between atoms: _509  and  _512
REMARK  208  A    between atoms: _512  and  _513
REMARK  209  A    between atoms: _519  and  _521
REMARK  210  A    between atoms: _521  and  _522
REMARK  211  A    between atoms: _524  and  _526
REMARK  212  A    between atoms: _526  and  _527
REMARK  213  A    between atoms: _526  and  _529
REMARK  214  A    between atoms: _529  and  _530
REMARK  215  A    between atoms: _530  and  _531
REMARK  216  A    between atoms: _531  and  _532
REMARK  217  A    between atoms: _532  and  _533
REMARK  218  A    between atoms: _537  and  _539
REMARK  219  A    between atoms: _539  and  _540
REMARK  220  A    between atoms: _542  and  _544
REMARK  221  A    between atoms: _544  and  _545
REMARK  222  A    between atoms: _544  and  _547
REMARK  223  A    between atoms: _550  and  _552
REMARK  224  A    between atoms: _552  and  _553
REMARK  225  A    between atoms: _555  and  _557
REMARK  226  A    between atoms: _557  and  _558
REMARK  227  A    between atoms: _557  and  _560
REMARK  228  A    between atoms: _560  and  _561
REMARK                            x       y       z     vdW  Elec       q    Type
REMARK                         _______ _______ _______ _____ _____    ______ ____
ROOT
ATOM      1  CB  PHE A   1      31.033  -8.131   3.575  0.00  0.00    +0.051 C 
ENDROOT
BRANCH   1   2
ATOM      2  CG  PHE A   1      30.012  -8.885   2.761  0.00  0.00    -0.020 A 
ATOM      3  CD2 PHE A   1      29.841 -10.253   2.924  0.00  0.00    -0.004 A 
ATOM      4  CE2 PHE A   1      28.894 -10.950   2.170  0.00  0.00    -0.000 A 
ATOM      5  CZ  PHE A   1      28.116 -10.281   1.251  0.00  0.00    -0.000 A 
ATOM      6  CE1 PHE A   1      28.261  -8.924   1.087  0.00  0.00    -0.000 A 
ATOM      7  CD1 PHE A   1      29.199  -8.223   1.849  0.00  0.00    -0.004 A 
ENDBRANCH   1   2
BRANCH   1   8
ATOM      8  CA  PHE A   1      32.391  -7.922   2.873  0.00  0.00    +0.137 C 
BRANCH   8   9
ATOM      9  N   PHE A   1      32.918  -9.200   2.361  0.00  0.00    -0.239 NA
ATOM     10  H   PHE A   1      32.848 -10.043   2.966  0.00  0.00    +0.142 HD
ENDBRANCH   8   9
BRANCH   8  11
ATOM     11  C   PHE A   1      33.355  -7.164   3.798  0.00  0.00    +0.224 C 
ATOM     12  O   PHE A   1      33.170  -5.965   4.006  0.00  0.00    -0.287 OA
ENDBRANCH   8  11
ENDBRANCH   1   8
TORSDOF 4
REMARK  Name = ../refined-set-2016/4pox/4pox_pocket.pdb
REMARK  228 active torsions:
REMARK  status: ('A' for Active; 'I' for Inactive)
REMARK    1  A    between atoms: _1  and  _3
REMARK    2  A    between atoms: _3  and  _4
REMARK    3  A    between atoms: _3  and  _6
REMARK    4  A    between atoms: _6  and  _7
REMARK    5  A    between atoms: _10  and  _12
REMARK    6  A    between atoms: _12  and  _13
REMARK    7  A    between atoms: _12  and  _15
REMARK    8  A    between atoms: _15  and  _16
REMARK    9  A    between atoms: _16  and  _17
REMARK   10  A    between atoms: _20  and  _22
REMARK   11  A    between atoms: _22  and  _23
REMARK   12  A    between atoms: _25  and  _27
REMARK   13  A    between atoms: _27  and  _28
REMARK   14  A    between atoms: _27  and  _30
REMARK   15  A    between atoms: _30  and  _31
REMARK   16  A    between atoms: _33  and  _35
REMARK   17  A    between atoms: _35  and  _36
REMARK   18  A    between atoms: _35  and  _38
REMARK   19  A    between atoms: _38  and  _39
REMARK   20  A    between atoms: _44  and  _45
REMARK   21  A    between atoms: _47  and  _49
REMARK   22  A    between atoms: _49  and  _50
REMARK   23  A    between atoms: _53  and  _55
REMARK   24  A    between atoms: _55  and  _56
REMARK   25  A    between atoms: _55  and  _58
REMARK   26  A    between atoms: _58  and  _59
REMARK   27  A    between atoms: _64  and  _65
REMARK   28  A    between atoms: _67  and  _69
REMARK   29  A    between atoms: _69  and  _70
REMARK   30  A    between atoms: _69  and  _72
REMARK   31  A    between atoms: _72  and  _73
REMARK   32  A    between atoms: _78  and  _80
REMARK   33  A    between atoms: _80  and  _81
REMARK   34  A    between atoms: _80  and  _83
REMARK   35  A    between atoms: _83  and  _84
REMARK   36  A    between atoms: _90  and  _92
REMARK   37  A    between atoms: _92  and  _93
REMARK   38  A    between atoms: _92  and  _95
REMARK   39  A    between atoms: _95  and  _96
REMARK   40  A    between atoms: _99  and  _101
REMARK   41  A    between atoms: _101  and  _102
REMARK   42  A    between atoms: _101  and  _104
REMARK   43  A    between atoms: _104  and  _105
REMARK   44  A    between atoms: _105  and  _106
REMARK   45  A    between atoms: _111  and  _113
REMARK   46  A    between atoms: _113  and  _114
REMARK   47  A    between atoms: _117  and  _119
REMARK   48  A    between atoms: _119  and  _120
REMARK   49  A    between atoms: _119  and  _122
REMARK   50  A    between atoms: _122  and  _123
REMARK   51  A    between atoms: _133  and  _135
REMARK   52  A    between atoms: _135  and  _136
REMARK   53  A    between atoms: _135  and  _138
REMARK   54  A    between atoms: _138  and  _139
REMARK   55  A    between atoms: _142  and  _144
REMARK   56  A    between atoms: _144  and  _145
REMARK   57  A    between atoms: _144  and  _147
REMARK   58  A    between atoms: _147  and  _148
REMARK   59  A    between atoms: _151  and  _153
REMARK   60  A    between atoms: _153  and  _154
REMARK   61  A    between atoms: _153  and  _156
REMARK   62  A    between atoms: _156  and  _157
REMARK   63  A    between atoms: _160  and  _162
REMARK   64  A    between atoms: _162  and  _163
REMARK   65  A    between atoms: _162  and  _165
REMARK   66  A    between atoms: _165  and  _166
REMARK   67  A    between atoms: _166  and  _167
REMARK   68  A    between atoms: _169  and  _171
REMARK   69  A    between atoms: _171  and  _172
REMARK   70  A    between atoms: _175  and  _177
REMARK   71  A    between atoms: _177  and  _178
REMARK   72  A    between atoms: _181  and  _183
REMARK   73  A    between atoms: _183  and  _184
REMARK   74  A    between atoms: _183  and  _186
REMARK   75  A    between atoms: _186  and  _187
REMARK   76  A    between atoms: _187  and  _188
REMARK   77  A    between atoms: _190  and  _192
REMARK   78  A    between atoms: _192  and  _193
REMARK   79  A    between atoms: _195  and  _197
REMARK   80  A    between atoms: _197  and  _198
REMARK   81  A    between atoms: _197  and  _200
REMARK   82  A    between atoms: _200  and  _201
REMARK   83  A    between atoms: _204  and  _206
REMARK   84  A    between atoms: _206  and  _207
REMARK   85  A    between atoms: _206  and  _209
REMARK   86  A    between atoms: _209  and  _210
REMARK   87  A    between atoms: _210  and  _211
REMARK   88  A    between atoms: _216  and  _218
REMARK   89  A    between atoms: _218  and  _219
REMARK   90  A    between atoms: _218  and  _221
REMARK   91  A    between atoms: _221  and  _222
REMARK   92  A    between atoms: _222  and  _223
REMARK   93  A    between atoms: _223  and  _224
REMARK   94  A    between atoms: _233  and  _235
REMARK   95  A    between atoms: _235  and  _236
REMARK   96  A    between atoms: _235  and  _238
REMARK   97  A    between atoms: _238  and  _239
REMARK   98  A    between atoms: _246  and  _247
REMARK   99  A    between atoms: _252  and  _254
REMARK  100  A    between atoms: _254  and  _255
REMARK  101  A    between atoms: _254  and  _257
REMARK  102  A    between atoms: _257  and  _258
REMARK  103  A    between atoms: _263  and  _264
REMARK  104  A    between atoms: _266  and  _268
REMARK  105  A    between atoms: _268  and  _269
REMARK  106  A    between atoms: _268  and  _271
REMARK  107  A    between atoms: _271  and  _272
REMARK  108  A    between atoms: _275  and  _277
REMARK  109  A    between atoms: _277  and  _278
REMARK  110  A    between atoms: _277  and  _280
REMARK  111  A    between atoms: _280  and  _281
REMARK  112  A    between atoms: _284  and  _286
REMARK  113  A    between atoms: _286  and  _287
REMARK  114  A    between atoms: _286  and  _289
REMARK  115  A    between atoms: _289  and  _290
REMARK  116  A    between atoms: _294  and  _295
REMARK  117  A    between atoms: _300  and  _302
REMARK  118  A    between atoms: _302  and  _303
REMARK  119  A    between atoms: _302  and  _305
REMARK  120  A    between atoms: _305  and  _306
REMARK  121  A    between atoms: _306  and  _307
REMARK  122  A    between atoms: _309  and  _311
REMARK  123  A    between atoms: _311  and  _312
REMARK  124  A    between atoms: _311  and  _314
REMARK  125  A    between atoms: _314  and  _315
REMARK  126  A    between atoms: _318  and  _320
REMARK  127  A    between atoms: _320  and  _321
REMARK  128  A    between atoms: _320  and  _323
REMARK  129  A    between atoms: _323  and  _324
REMARK  130  A    between atoms: _324  and  _325
REMARK  131  A    between atoms: _330  and  _332
REMARK  132  A    between atoms: _332  and  _333
REMARK  133  A    between atoms: _336  and  _338
REMARK  134  A    between atoms: _338  and  _339
REMARK  135  A    between atoms: _341  and  _343
REMARK  136  A    between atoms: _343  and  _344
REMARK  137  A    between atoms: _343  and  _346
REMARK  138  A    between atoms: _346  and  _347
REMARK  139  A    between atoms: _350  and  _352
REMARK  140  A    between atoms: _352  and  _353
REMARK  141  A    between atoms: _352  and  _355
REMARK  142  A    between atoms: _355  and  _356
REMARK  143  A    between atoms: _358  and  _360
REMARK  144  A    between atoms: _360  and  _361
REMARK  145  A    between atoms: _360  and  _363
REMARK  146  A    between atoms: _363  and  _364
REMARK  147  A    between atoms: _369  and  _371
REMARK  148  A    between atoms: _371  and  _372
REMARK  149  A    between atoms: _371  and  _374
REMARK  150  A    between atoms: _374  and  _375
REMARK  151  A    between atoms: _375  and  _376
REMARK  152  A    between atoms: _379  and  _381
REMARK  153  A    between atoms: _381  and  _382
REMARK  154  A    between atoms: _385  and  _387
REMARK  155  A    between atoms: _387  and  _388
REMARK  156  A    between atoms: _387  and  _390
REMARK  157  A    between atoms: _390  and  _391
REMARK  158  A    between atoms: _397  and  _399
REMARK  159  A    between atoms: _399  and  _400
REMARK  160  A    between atoms: _399  and  _402
REMARK  161  A    between atoms: _402  and  _403
REMARK  162  A    between atoms: _406  and  _408
REMARK  163  A    between atoms: _408  and  _409
REMARK  164  A    between atoms: _408  and  _411
REMARK  165  A    between atoms: _411  and  _412
REMARK  166  A    between atoms: _415  and  _417
REMARK  167  A    between atoms: _417  and  _418
REMARK  168  A    between atoms: _417  and  _420
REMARK  169  A    between atoms: _420  and  _421
REMARK  170  A    between atoms: _424  and  _426
REMARK  171  A    between atoms: _426  and  _427
REMARK  172  A    between atoms: _426  and  _429
REMARK  173  A    between atoms: _429  and  _430
REMARK  174  A    between atoms: _433  and  _435
REMARK  175  A    between atoms: _435  and  _436
REMARK  176  A    between atoms: _435  and  _438
REMARK  177  A    between atoms: _438  and  _439
REMARK  178  A    between atoms: _442  and  _444
REMARK  179  A    between atoms: _444  and  _445
REMARK  180  A    between atoms: _448  and  _450
REMARK  181  A    between atoms: _450  and  _451
REMARK  182  A    between atoms: _450  and  _453
REMARK  183  A    between atoms: _453  and  _454
REMARK  184  A    between atoms: _456  and  _458
REMARK  185  A    between atoms: _458  and  _459
REMARK  186  A    between atoms: _458  and  _461
REMARK  187  A    between atoms: _464  and  _466
REMARK  188  A    between atoms: _466  and  _467
REMARK  189  A    between atoms: _466  and  _469
REMARK  190  A    between atoms: _469  and  _470
REMARK  191  A    between atoms: _472  and  _474
REMARK  192  A    between atoms: _474  and  _475
REMARK  193  A    between atoms: _474  and  _477
REMARK  194  A    between atoms: _477  and  _478
REMARK  195  A    between atoms: _484  and  _486
REMARK  196  A    between atoms: _486  and  _487
REMARK  197  A    between atoms: _486  and  _489
REMARK  198  A    between atoms: _489  and  _490
REMARK  199  A    between atoms: _493  and  _495
REMARK  200  A    between atoms: _495  and  _496
REMARK  201  A    between atoms: _498  and  _500
REMARK  202  A    between atoms: _500  and  _501
REMARK  203  A    between atoms: _500  and  _503
REMARK  204  A    between atoms: _503  and  _504
REMARK  205  A    between atoms: _507  and  _509
REMARK  206  A    between atoms: _509  and  _510
REMARK  207  A    between atoms: _509  and  _512
REMARK  208  A    between atoms: _512  and  _513
REMARK  209  A    between atoms: _519  and  _521
REMARK  210  A    between atoms: _521  and  _522
REMARK  211  A    between atoms: _524  and  _526
REMARK  212  A    between atoms: _526  and  _527
REMARK  213  A    between atoms: _526  and  _529
REMARK  214  A    between atoms: _529  and  _530
REMARK  215  A    between atoms: _530  and  _531
REMARK  216  A    between atoms: _531  and  _532
REMARK  217  A    between atoms: _532  and  _533
REMARK  218  A    between atoms: _537  and  _539
REMARK  219  A    between atoms: _539  and  _540
REMARK  220  A    between atoms: _542  and  _544
REMARK  221  A    between atoms: _544  and  _545
REMARK  222  A    between atoms: _544  and  _547
REMARK  223  A    between atoms: _550  and  _552
REMARK  224  A    between atoms: _552  and  _553
REMARK  225  A    between atoms: _555  and  _557
REMARK  226  A    between atoms: _557  and  _558
REMARK  227  A    between atoms: _557  and  _560
REMARK  228  A    between atoms: _560  and  _561
REMARK                            x       y       z     vdW  Elec       q    Type
REMARK                         _______ _______ _______ _____ _____    ______ ____
ROOT
ATOM      1  O   HOH     1      22.691  -4.643  -9.773  0.00  0.00    +0.000 OA
ENDROOT
TORSDOF 0
REMARK  Name = ../refined-set-2016/4pox/4pox_pocket.pdb
REMARK  228 active torsions:
REMARK  status: ('A' for Active; 'I' for Inactive)
REMARK    1  A    between atoms: _1  and  _3
REMARK    2  A    between atoms: _3  and  _4
REMARK    3  A    between atoms: _3  and  _6
REMARK    4  A    between atoms: _6  and  _7
REMARK    5  A    between atoms: _10  and  _12
REMARK    6  A    between atoms: _12  and  _13
REMARK    7  A    between atoms: _12  and  _15
REMARK    8  A    between atoms: _15  and  _16
REMARK    9  A    between atoms: _16  and  _17
REMARK   10  A    between atoms: _20  and  _22
REMARK   11  A    between atoms: _22  and  _23
REMARK   12  A    between atoms: _25  and  _27
REMARK   13  A    between atoms: _27  and  _28
REMARK   14  A    between atoms: _27  and  _30
REMARK   15  A    between atoms: _30  and  _31
REMARK   16  A    between atoms: _33  and  _35
REMARK   17  A    between atoms: _35  and  _36
REMARK   18  A    between atoms: _35  and  _38
REMARK   19  A    between atoms: _38  and  _39
REMARK   20  A    between atoms: _44  and  _45
REMARK   21  A    between atoms: _47  and  _49
REMARK   22  A    between atoms: _49  and  _50
REMARK   23  A    between atoms: _53  and  _55
REMARK   24  A    between atoms: _55  and  _56
REMARK   25  A    between atoms: _55  and  _58
REMARK   26  A    between atoms: _58  and  _59
REMARK   27  A    between atoms: _64  and  _65
REMARK   28  A    between atoms: _67  and  _69
REMARK   29  A    between atoms: _69  and  _70
REMARK   30  A    between atoms: _69  and  _72
REMARK   31  A    between atoms: _72  and  _73
REMARK   32  A    between atoms: _78  and  _80
REMARK   33  A    between atoms: _80  and  _81
REMARK   34  A    between atoms: _80  and  _83
REMARK   35  A    between atoms: _83  and  _84
REMARK   36  A    between atoms: _90  and  _92
REMARK   37  A    between atoms: _92  and  _93
REMARK   38  A    between atoms: _92  and  _95
REMARK   39  A    between atoms: _95  and  _96
REMARK   40  A    between atoms: _99  and  _101
REMARK   41  A    between atoms: _101  and  _102
REMARK   42  A    between atoms: _101  and  _104
REMARK   43  A    between atoms: _104  and  _105
REMARK   44  A    between atoms: _105  and  _106
REMARK   45  A    between atoms: _111  and  _113
REMARK   46  A    between atoms: _113  and  _114
REMARK   47  A    between atoms: _117  and  _119
REMARK   48  A    between atoms: _119  and  _120
REMARK   49  A    between atoms: _119  and  _122
REMARK   50  A    between atoms: _122  and  _123
REMARK   51  A    between atoms: _133  and  _135
REMARK   52  A    between atoms: _135  and  _136
REMARK   53  A    between atoms: _135  and  _138
REMARK   54  A    between atoms: _138  and  _139
REMARK   55  A    between atoms: _142  and  _144
REMARK   56  A    between atoms: _144  and  _145
REMARK   57  A    between atoms: _144  and  _147
REMARK   58  A    between atoms: _147  and  _148
REMARK   59  A    between atoms: _151  and  _153
REMARK   60  A    between atoms: _153  and  _154
REMARK   61  A    between atoms: _153  and  _156
REMARK   62  A    between atoms: _156  and  _157
REMARK   63  A    between atoms: _160  and  _162
REMARK   64  A    between atoms: _162  and  _163
REMARK   65  A    between atoms: _162  and  _165
REMARK   66  A    between atoms: _165  and  _166
REMARK   67  A    between atoms: _166  and  _167
REMARK   68  A    between atoms: _169  and  _171
REMARK   69  A    between atoms: _171  and  _172
REMARK   70  A    between atoms: _175  and  _177
REMARK   71  A    between atoms: _177  and  _178
REMARK   72  A    between atoms: _181  and  _183
REMARK   73  A    between atoms: _183  and  _184
REMARK   74  A    between atoms: _183  and  _186
REMARK   75  A    between atoms: _186  and  _187
REMARK   76  A    between atoms: _187  and  _188
REMARK   77  A    between atoms: _190  and  _192
REMARK   78  A    between atoms: _192  and  _193
REMARK   79  A    between atoms: _195  and  _197
REMARK   80  A    between atoms: _197  and  _198
REMARK   81  A    between atoms: _197  and  _200
REMARK   82  A    between atoms: _200  and  _201
REMARK   83  A    between atoms: _204  and  _206
REMARK   84  A    between atoms: _206  and  _207
REMARK   85  A    between atoms: _206  and  _209
REMARK   86  A    between atoms: _209  and  _210
REMARK   87  A    between atoms: _210  and  _211
REMARK   88  A    between atoms: _216  and  _218
REMARK   89  A    between atoms: _218  and  _219
REMARK   90  A    between atoms: _218  and  _221
REMARK   91  A    between atoms: _221  and  _222
REMARK   92  A    between atoms: _222  and  _223
REMARK   93  A    between atoms: _223  and  _224
REMARK   94  A    between atoms: _233  and  _235
REMARK   95  A    between atoms: _235  and  _236
REMARK   96  A    between atoms: _235  and  _238
REMARK   97  A    between atoms: _238  and  _239
REMARK   98  A    between atoms: _246  and  _247
REMARK   99  A    between atoms: _252  and  _254
REMARK  100  A    between atoms: _254  and  _255
REMARK  101  A    between atoms: _254  and  _257
REMARK  102  A    between atoms: _257  and  _258
REMARK  103  A    between atoms: _263  and  _264
REMARK  104  A    between atoms: _266  and  _268
REMARK  105  A    between atoms: _268  and  _269
REMARK  106  A    between atoms: _268  and  _271
REMARK  107  A    between atoms: _271  and  _272
REMARK  108  A    between atoms: _275  and  _277
REMARK  109  A    between atoms: _277  and  _278
REMARK  110  A    between atoms: _277  and  _280
REMARK  111  A    between atoms: _280  and  _281
REMARK  112  A    between atoms: _284  and  _286
REMARK  113  A    between atoms: _286  and  _287
REMARK  114  A    between atoms: _286  and  _289
REMARK  115  A    between atoms: _289  and  _290
REMARK  116  A    between atoms: _294  and  _295
REMARK  117  A    between atoms: _300  and  _302
REMARK  118  A    between atoms: _302  and  _303
REMARK  119  A    between atoms: _302  and  _305
REMARK  120  A    between atoms: _305  and  _306
REMARK  121  A    between atoms: _306  and  _307
REMARK  122  A    between atoms: _309  and  _311
REMARK  123  A    between atoms: _311  and  _312
REMARK  124  A    between atoms: _311  and  _314
REMARK  125  A    between atoms: _314  and  _315
REMARK  126  A    between atoms: _318  and  _320
REMARK  127  A    between atoms: _320  and  _321
REMARK  128  A    between atoms: _320  and  _323
REMARK  129  A    between atoms: _323  and  _324
REMARK  130  A    between atoms: _324  and  _325
REMARK  131  A    between atoms: _330  and  _332
REMARK  132  A    between atoms: _332  and  _333
REMARK  133  A    between atoms: _336  and  _338
REMARK  134  A    between atoms: _338  and  _339
REMARK  135  A    between atoms: _341  and  _343
REMARK  136  A    between atoms: _343  and  _344
REMARK  137  A    between atoms: _343  and  _346
REMARK  138  A    between atoms: _346  and  _347
REMARK  139  A    between atoms: _350  and  _352
REMARK  140  A    between atoms: _352  and  _353
REMARK  141  A    between atoms: _352  and  _355
REMARK  142  A    between atoms: _355  and  _356
REMARK  143  A    between atoms: _358  and  _360
REMARK  144  A    between atoms: _360  and  _361
REMARK  145  A    between atoms: _360  and  _363
REMARK  146  A    between atoms: _363  and  _364
REMARK  147  A    between atoms: _369  and  _371
REMARK  148  A    between atoms: _371  and  _372
REMARK  149  A    between atoms: _371  and  _374
REMARK  150  A    between atoms: _374  and  _375
REMARK  151  A    between atoms: _375  and  _376
REMARK  152  A    between atoms: _379  and  _381
REMARK  153  A    between atoms: _381  and  _382
REMARK  154  A    between atoms: _385  and  _387
REMARK  155  A    between atoms: _387  and  _388
REMARK  156  A    between atoms: _387  and  _390
REMARK  157  A    between atoms: _390  and  _391
REMARK  158  A    between atoms: _397  and  _399
REMARK  159  A    between atoms: _399  and  _400
REMARK  160  A    between atoms: _399  and  _402
REMARK  161  A    between atoms: _402  and  _403
REMARK  162  A    between atoms: _406  and  _408
REMARK  163  A    between atoms: _408  and  _409
REMARK  164  A    between atoms: _408  and  _411
REMARK  165  A    between atoms: _411  and  _412
REMARK  166  A    between atoms: _415  and  _417
REMARK  167  A    between atoms: _417  and  _418
REMARK  168  A    between atoms: _417  and  _420
REMARK  169  A    between atoms: _420  and  _421
REMARK  170  A    between atoms: _424  and  _426
REMARK  171  A    between atoms: _426  and  _427
REMARK  172  A    between atoms: _426  and  _429
REMARK  173  A    between atoms: _429  and  _430
REMARK  174  A    between atoms: _433  and  _435
REMARK  175  A    between atoms: _435  and  _436
REMARK  176  A    between atoms: _435  and  _438
REMARK  177  A    between atoms: _438  and  _439
REMARK  178  A    between atoms: _442  and  _444
REMARK  179  A    between atoms: _444  and  _445
REMARK  180  A    between atoms: _448  and  _450
REMARK  181  A    between atoms: _450  and  _451
REMARK  182  A    between atoms: _450  and  _453
REMARK  183  A    between atoms: _453  and  _454
REMARK  184  A    between atoms: _456  and  _458
REMARK  185  A    between atoms: _458  and  _459
REMARK  186  A    between atoms: _458  and  _461
REMARK  187  A    between atoms: _464  and  _466
REMARK  188  A    between atoms: _466  and  _467
REMARK  189  A    between atoms: _466  and  _469
REMARK  190  A    between atoms: _469  and  _470
REMARK  191  A    between atoms: _472  and  _474
REMARK  192  A    between atoms: _474  and  _475
REMARK  193  A    between atoms: _474  and  _477
REMARK  194  A    between atoms: _477  and  _478
REMARK  195  A    between atoms: _484  and  _486
REMARK  196  A    between atoms: _486  and  _487
REMARK  197  A    between atoms: _486  and  _489
REMARK  198  A    between atoms: _489  and  _490
REMARK  199  A    between atoms: _493  and  _495
REMARK  200  A    between atoms: _495  and  _496
REMARK  201  A    between atoms: _498  and  _500
REMARK  202  A    between atoms: _500  and  _501
REMARK  203  A    between atoms: _500  and  _503
REMARK  204  A    between atoms: _503  and  _504
REMARK  205  A    between atoms: _507  and  _509
REMARK  206  A    between atoms: _509  and  _510
REMARK  207  A    between atoms: _509  and  _512
REMARK  208  A    between atoms: _512  and  _513
REMARK  209  A    between atoms: _519  and  _521
REMARK  210  A    between atoms: _521  and  _522
REMARK  211  A    between atoms: _524  and  _526
REMARK  212  A    between atoms: _526  and  _527
REMARK  213  A    between atoms: _526  and  _529
REMARK  214  A    between atoms: _529  and  _530
REMARK  215  A    between atoms: _530  and  _531
REMARK  216  A    between atoms: _531  and  _532
REMARK  217  A    between atoms: _532  and  _533
REMARK  218  A    between atoms: _537  and  _539
REMARK  219  A    between atoms: _539  and  _540
REMARK  220  A    between atoms: _542  and  _544
REMARK  221  A    between atoms: _544  and  _545
REMARK  222  A    between atoms: _544  and  _547
REMARK  223  A    between atoms: _550  and  _552
REMARK  224  A    between atoms: _552  and  _553
REMARK  225  A    between atoms: _555  and  _557
REMARK  226  A    between atoms: _557  and  _558
REMARK  227  A    between atoms: _557  and  _560
REMARK  228  A    between atoms: _560  and  _561
REMARK                            x       y       z     vdW  Elec       q    Type
REMARK                         _______ _______ _______ _____ _____    ______ ____
ROOT
ATOM      1  O   HOH     1      20.377  -7.086 -13.773  0.00  0.00    +0.000 OA
ENDROOT
TORSDOF 0
REMARK  Name = ../refined-set-2016/4pox/4pox_pocket.pdb
REMARK  228 active torsions:
REMARK  status: ('A' for Active; 'I' for Inactive)
REMARK    1  A    between atoms: _1  and  _3
REMARK    2  A    between atoms: _3  and  _4
REMARK    3  A    between atoms: _3  and  _6
REMARK    4  A    between atoms: _6  and  _7
REMARK    5  A    between atoms: _10  and  _12
REMARK    6  A    between atoms: _12  and  _13
REMARK    7  A    between atoms: _12  and  _15
REMARK    8  A    between atoms: _15  and  _16
REMARK    9  A    between atoms: _16  and  _17
REMARK   10  A    between atoms: _20  and  _22
REMARK   11  A    between atoms: _22  and  _23
REMARK   12  A    between atoms: _25  and  _27
REMARK   13  A    between atoms: _27  and  _28
REMARK   14  A    between atoms: _27  and  _30
REMARK   15  A    between atoms: _30  and  _31
REMARK   16  A    between atoms: _33  and  _35
REMARK   17  A    between atoms: _35  and  _36
REMARK   18  A    between atoms: _35  and  _38
REMARK   19  A    between atoms: _38  and  _39
REMARK   20  A    between atoms: _44  and  _45
REMARK   21  A    between atoms: _47  and  _49
REMARK   22  A    between atoms: _49  and  _50
REMARK   23  A    between atoms: _53  and  _55
REMARK   24  A    between atoms: _55  and  _56
REMARK   25  A    between atoms: _55  and  _58
REMARK   26  A    between atoms: _58  and  _59
REMARK   27  A    between atoms: _64  and  _65
REMARK   28  A    between atoms: _67  and  _69
REMARK   29  A    between atoms: _69  and  _70
REMARK   30  A    between atoms: _69  and  _72
REMARK   31  A    between atoms: _72  and  _73
REMARK   32  A    between atoms: _78  and  _80
REMARK   33  A    between atoms: _80  and  _81
REMARK   34  A    between atoms: _80  and  _83
REMARK   35  A    between atoms: _83  and  _84
REMARK   36  A    between atoms: _90  and  _92
REMARK   37  A    between atoms: _92  and  _93
REMARK   38  A    between atoms: _92  and  _95
REMARK   39  A    between atoms: _95  and  _96
REMARK   40  A    between atoms: _99  and  _101
REMARK   41  A    between atoms: _101  and  _102
REMARK   42  A    between atoms: _101  and  _104
REMARK   43  A    between atoms: _104  and  _105
REMARK   44  A    between atoms: _105  and  _106
REMARK   45  A    between atoms: _111  and  _113
REMARK   46  A    between atoms: _113  and  _114
REMARK   47  A    between atoms: _117  and  _119
REMARK   48  A    between atoms: _119  and  _120
REMARK   49  A    between atoms: _119  and  _122
REMARK   50  A    between atoms: _122  and  _123
REMARK   51  A    between atoms: _133  and  _135
REMARK   52  A    between atoms: _135  and  _136
REMARK   53  A    between atoms: _135  and  _138
REMARK   54  A    between atoms: _138  and  _139
REMARK   55  A    between atoms: _142  and  _144
REMARK   56  A    between atoms: _144  and  _145
REMARK   57  A    between atoms: _144  and  _147
REMARK   58  A    between atoms: _147  and  _148
REMARK   59  A    between atoms: _151  and  _153
REMARK   60  A    between atoms: _153  and  _154
REMARK   61  A    between atoms: _153  and  _156
REMARK   62  A    between atoms: _156  and  _157
REMARK   63  A    between atoms: _160  and  _162
REMARK   64  A    between atoms: _162  and  _163
REMARK   65  A    between atoms: _162  and  _165
REMARK   66  A    between atoms: _165  and  _166
REMARK   67  A    between atoms: _166  and  _167
REMARK   68  A    between atoms: _169  and  _171
REMARK   69  A    between atoms: _171  and  _172
REMARK   70  A    between atoms: _175  and  _177
REMARK   71  A    between atoms: _177  and  _178
REMARK   72  A    between atoms: _181  and  _183
REMARK   73  A    between atoms: _183  and  _184
REMARK   74  A    between atoms: _183  and  _186
REMARK   75  A    between atoms: _186  and  _187
REMARK   76  A    between atoms: _187  and  _188
REMARK   77  A    between atoms: _190  and  _192
REMARK   78  A    between atoms: _192  and  _193
REMARK   79  A    between atoms: _195  and  _197
REMARK   80  A    between atoms: _197  and  _198
REMARK   81  A    between atoms: _197  and  _200
REMARK   82  A    between atoms: _200  and  _201
REMARK   83  A    between atoms: _204  and  _206
REMARK   84  A    between atoms: _206  and  _207
REMARK   85  A    between atoms: _206  and  _209
REMARK   86  A    between atoms: _209  and  _210
REMARK   87  A    between atoms: _210  and  _211
REMARK   88  A    between atoms: _216  and  _218
REMARK   89  A    between atoms: _218  and  _219
REMARK   90  A    between atoms: _218  and  _221
REMARK   91  A    between atoms: _221  and  _222
REMARK   92  A    between atoms: _222  and  _223
REMARK   93  A    between atoms: _223  and  _224
REMARK   94  A    between atoms: _233  and  _235
REMARK   95  A    between atoms: _235  and  _236
REMARK   96  A    between atoms: _235  and  _238
REMARK   97  A    between atoms: _238  and  _239
REMARK   98  A    between atoms: _246  and  _247
REMARK   99  A    between atoms: _252  and  _254
REMARK  100  A    between atoms: _254  and  _255
REMARK  101  A    between atoms: _254  and  _257
REMARK  102  A    between atoms: _257  and  _258
REMARK  103  A    between atoms: _263  and  _264
REMARK  104  A    between atoms: _266  and  _268
REMARK  105  A    between atoms: _268  and  _269
REMARK  106  A    between atoms: _268  and  _271
REMARK  107  A    between atoms: _271  and  _272
REMARK  108  A    between atoms: _275  and  _277
REMARK  109  A    between atoms: _277  and  _278
REMARK  110  A    between atoms: _277  and  _280
REMARK  111  A    between atoms: _280  and  _281
REMARK  112  A    between atoms: _284  and  _286
REMARK  113  A    between atoms: _286  and  _287
REMARK  114  A    between atoms: _286  and  _289
REMARK  115  A    between atoms: _289  and  _290
REMARK  116  A    between atoms: _294  and  _295
REMARK  117  A    between atoms: _300  and  _302
REMARK  118  A    between atoms: _302  and  _303
REMARK  119  A    between atoms: _302  and  _305
REMARK  120  A    between atoms: _305  and  _306
REMARK  121  A    between atoms: _306  and  _307
REMARK  122  A    between atoms: _309  and  _311
REMARK  123  A    between atoms: _311  and  _312
REMARK  124  A    between atoms: _311  and  _314
REMARK  125  A    between atoms: _314  and  _315
REMARK  126  A    between atoms: _318  and  _320
REMARK  127  A    between atoms: _320  and  _321
REMARK  128  A    between atoms: _320  and  _323
REMARK  129  A    between atoms: _323  and  _324
REMARK  130  A    between atoms: _324  and  _325
REMARK  131  A    between atoms: _330  and  _332
REMARK  132  A    between atoms: _332  and  _333
REMARK  133  A    between atoms: _336  and  _338
REMARK  134  A    between atoms: _338  and  _339
REMARK  135  A    between atoms: _341  and  _343
REMARK  136  A    between atoms: _343  and  _344
REMARK  137  A    between atoms: _343  and  _346
REMARK  138  A    between atoms: _346  and  _347
REMARK  139  A    between atoms: _350  and  _352
REMARK  140  A    between atoms: _352  and  _353
REMARK  141  A    between atoms: _352  and  _355
REMARK  142  A    between atoms: _355  and  _356
REMARK  143  A    between atoms: _358  and  _360
REMARK  144  A    between atoms: _360  and  _361
REMARK  145  A    between atoms: _360  and  _363
REMARK  146  A    between atoms: _363  and  _364
REMARK  147  A    between atoms: _369  and  _371
REMARK  148  A    between atoms: _371  and  _372
REMARK  149  A    between atoms: _371  and  _374
REMARK  150  A    between atoms: _374  and  _375
REMARK  151  A    between atoms: _375  and  _376
REMARK  152  A    between atoms: _379  and  _381
REMARK  153  A    between atoms: _381  and  _382
REMARK  154  A    between atoms: _385  and  _387
REMARK  155  A    between atoms: _387  and  _388
REMARK  156  A    between atoms: _387  and  _390
REMARK  157  A    between atoms: _390  and  _391
REMARK  158  A    between atoms: _397  and  _399
REMARK  159  A    between atoms: _399  and  _400
REMARK  160  A    between atoms: _399  and  _402
REMARK  161  A    between atoms: _402  and  _403
REMARK  162  A    between atoms: _406  and  _408
REMARK  163  A    between atoms: _408  and  _409
REMARK  164  A    between atoms: _408  and  _411
REMARK  165  A    between atoms: _411  and  _412
REMARK  166  A    between atoms: _415  and  _417
REMARK  167  A    between atoms: _417  and  _418
REMARK  168  A    between atoms: _417  and  _420
REMARK  169  A    between atoms: _420  and  _421
REMARK  170  A    between atoms: _424  and  _426
REMARK  171  A    between atoms: _426  and  _427
REMARK  172  A    between atoms: _426  and  _429
REMARK  173  A    between atoms: _429  and  _430
REMARK  174  A    between atoms: _433  and  _435
REMARK  175  A    between atoms: _435  and  _436
REMARK  176  A    between atoms: _435  and  _438
REMARK  177  A    between atoms: _438  and  _439
REMARK  178  A    between atoms: _442  and  _444
REMARK  179  A    between atoms: _444  and  _445
REMARK  180  A    between atoms: _448  and  _450
REMARK  181  A    between atoms: _450  and  _451
REMARK  182  A    between atoms: _450  and  _453
REMARK  183  A    between atoms: _453  and  _454
REMARK  184  A    between atoms: _456  and  _458
REMARK  185  A    between atoms: _458  and  _459
REMARK  186  A    between atoms: _458  and  _461
REMARK  187  A    between atoms: _464  and  _466
REMARK  188  A    between atoms: _466  and  _467
REMARK  189  A    between atoms: _466  and  _469
REMARK  190  A    between atoms: _469  and  _470
REMARK  191  A    between atoms: _472  and  _474
REMARK  192  A    between atoms: _474  and  _475
REMARK  193  A    between atoms: _474  and  _477
REMARK  194  A    between atoms: _477  and  _478
REMARK  195  A    between atoms: _484  and  _486
REMARK  196  A    between atoms: _486  and  _487
REMARK  197  A    between atoms: _486  and  _489
REMARK  198  A    between atoms: _489  and  _490
REMARK  199  A    between atoms: _493  and  _495
REMARK  200  A    between atoms: _495  and  _496
REMARK  201  A    between atoms: _498  and  _500
REMARK  202  A    between atoms: _500  and  _501
REMARK  203  A    between atoms: _500  and  _503
REMARK  204  A    between atoms: _503  and  _504
REMARK  205  A    between atoms: _507  and  _509
REMARK  206  A    between atoms: _509  and  _510
REMARK  207  A    between atoms: _509  and  _512
REMARK  208  A    between atoms: _512  and  _513
REMARK  209  A    between atoms: _519  and  _521
REMARK  210  A    between atoms: _521  and  _522
REMARK  211  A    between atoms: _524  and  _526
REMARK  212  A    between atoms: _526  and  _527
REMARK  213  A    between atoms: _526  and  _529
REMARK  214  A    between atoms: _529  and  _530
REMARK  215  A    between atoms: _530  and  _531
REMARK  216  A    between atoms: _531  and  _532
REMARK  217  A    between atoms: _532  and  _533
REMARK  218  A    between atoms: _537  and  _539
REMARK  219  A    between atoms: _539  and  _540
REMARK  220  A    between atoms: _542  and  _544
REMARK  221  A    between atoms: _544  and  _545
REMARK  222  A    between atoms: _544  and  _547
REMARK  223  A    between atoms: _550  and  _552
REMARK  224  A    between atoms: _552  and  _553
REMARK  225  A    between atoms: _555  and  _557
REMARK  226  A    between atoms: _557  and  _558
REMARK  227  A    between atoms: _557  and  _560
REMARK  228  A    between atoms: _560  and  _561
REMARK                            x       y       z     vdW  Elec       q    Type
REMARK                         _______ _______ _______ _____ _____    ______ ____
ROOT
ATOM      1  O   HOH     1      18.861   0.301  -4.720  0.00  0.00    +0.000 OA
ENDROOT
TORSDOF 0
REMARK  Name = ../refined-set-2016/4pox/4pox_pocket.pdb
REMARK  228 active torsions:
REMARK  status: ('A' for Active; 'I' for Inactive)
REMARK    1  A    between atoms: _1  and  _3
REMARK    2  A    between atoms: _3  and  _4
REMARK    3  A    between atoms: _3  and  _6
REMARK    4  A    between atoms: _6  and  _7
REMARK    5  A    between atoms: _10  and  _12
REMARK    6  A    between atoms: _12  and  _13
REMARK    7  A    between atoms: _12  and  _15
REMARK    8  A    between atoms: _15  and  _16
REMARK    9  A    between atoms: _16  and  _17
REMARK   10  A    between atoms: _20  and  _22
REMARK   11  A    between atoms: _22  and  _23
REMARK   12  A    between atoms: _25  and  _27
REMARK   13  A    between atoms: _27  and  _28
REMARK   14  A    between atoms: _27  and  _30
REMARK   15  A    between atoms: _30  and  _31
REMARK   16  A    between atoms: _33  and  _35
REMARK   17  A    between atoms: _35  and  _36
REMARK   18  A    between atoms: _35  and  _38
REMARK   19  A    between atoms: _38  and  _39
REMARK   20  A    between atoms: _44  and  _45
REMARK   21  A    between atoms: _47  and  _49
REMARK   22  A    between atoms: _49  and  _50
REMARK   23  A    between atoms: _53  and  _55
REMARK   24  A    between atoms: _55  and  _56
REMARK   25  A    between atoms: _55  and  _58
REMARK   26  A    between atoms: _58  and  _59
REMARK   27  A    between atoms: _64  and  _65
REMARK   28  A    between atoms: _67  and  _69
REMARK   29  A    between atoms: _69  and  _70
REMARK   30  A    between atoms: _69  and  _72
REMARK   31  A    between atoms: _72  and  _73
REMARK   32  A    between atoms: _78  and  _80
REMARK   33  A    between atoms: _80  and  _81
REMARK   34  A    between atoms: _80  and  _83
REMARK   35  A    between atoms: _83  and  _84
REMARK   36  A    between atoms: _90  and  _92
REMARK   37  A    between atoms: _92  and  _93
REMARK   38  A    between atoms: _92  and  _95
REMARK   39  A    between atoms: _95  and  _96
REMARK   40  A    between atoms: _99  and  _101
REMARK   41  A    between atoms: _101  and  _102
REMARK   42  A    between atoms: _101  and  _104
REMARK   43  A    between atoms: _104  and  _105
REMARK   44  A    between atoms: _105  and  _106
REMARK   45  A    between atoms: _111  and  _113
REMARK   46  A    between atoms: _113  and  _114
REMARK   47  A    between atoms: _117  and  _119
REMARK   48  A    between atoms: _119  and  _120
REMARK   49  A    between atoms: _119  and  _122
REMARK   50  A    between atoms: _122  and  _123
REMARK   51  A    between atoms: _133  and  _135
REMARK   52  A    between atoms: _135  and  _136
REMARK   53  A    between atoms: _135  and  _138
REMARK   54  A    between atoms: _138  and  _139
REMARK   55  A    between atoms: _142  and  _144
REMARK   56  A    between atoms: _144  and  _145
REMARK   57  A    between atoms: _144  and  _147
REMARK   58  A    between atoms: _147  and  _148
REMARK   59  A    between atoms: _151  and  _153
REMARK   60  A    between atoms: _153  and  _154
REMARK   61  A    between atoms: _153  and  _156
REMARK   62  A    between atoms: _156  and  _157
REMARK   63  A    between atoms: _160  and  _162
REMARK   64  A    between atoms: _162  and  _163
REMARK   65  A    between atoms: _162  and  _165
REMARK   66  A    between atoms: _165  and  _166
REMARK   67  A    between atoms: _166  and  _167
REMARK   68  A    between atoms: _169  and  _171
REMARK   69  A    between atoms: _171  and  _172
REMARK   70  A    between atoms: _175  and  _177
REMARK   71  A    between atoms: _177  and  _178
REMARK   72  A    between atoms: _181  and  _183
REMARK   73  A    between atoms: _183  and  _184
REMARK   74  A    between atoms: _183  and  _186
REMARK   75  A    between atoms: _186  and  _187
REMARK   76  A    between atoms: _187  and  _188
REMARK   77  A    between atoms: _190  and  _192
REMARK   78  A    between atoms: _192  and  _193
REMARK   79  A    between atoms: _195  and  _197
REMARK   80  A    between atoms: _197  and  _198
REMARK   81  A    between atoms: _197  and  _200
REMARK   82  A    between atoms: _200  and  _201
REMARK   83  A    between atoms: _204  and  _206
REMARK   84  A    between atoms: _206  and  _207
REMARK   85  A    between atoms: _206  and  _209
REMARK   86  A    between atoms: _209  and  _210
REMARK   87  A    between atoms: _210  and  _211
REMARK   88  A    between atoms: _216  and  _218
REMARK   89  A    between atoms: _218  and  _219
REMARK   90  A    between atoms: _218  and  _221
REMARK   91  A    between atoms: _221  and  _222
REMARK   92  A    between atoms: _222  and  _223
REMARK   93  A    between atoms: _223  and  _224
REMARK   94  A    between atoms: _233  and  _235
REMARK   95  A    between atoms: _235  and  _236
REMARK   96  A    between atoms: _235  and  _238
REMARK   97  A    between atoms: _238  and  _239
REMARK   98  A    between atoms: _246  and  _247
REMARK   99  A    between atoms: _252  and  _254
REMARK  100  A    between atoms: _254  and  _255
REMARK  101  A    between atoms: _254  and  _257
REMARK  102  A    between atoms: _257  and  _258
REMARK  103  A    between atoms: _263  and  _264
REMARK  104  A    between atoms: _266  and  _268
REMARK  105  A    between atoms: _268  and  _269
REMARK  106  A    between atoms: _268  and  _271
REMARK  107  A    between atoms: _271  and  _272
REMARK  108  A    between atoms: _275  and  _277
REMARK  109  A    between atoms: _277  and  _278
REMARK  110  A    between atoms: _277  and  _280
REMARK  111  A    between atoms: _280  and  _281
REMARK  112  A    between atoms: _284  and  _286
REMARK  113  A    between atoms: _286  and  _287
REMARK  114  A    between atoms: _286  and  _289
REMARK  115  A    between atoms: _289  and  _290
REMARK  116  A    between atoms: _294  and  _295
REMARK  117  A    between atoms: _300  and  _302
REMARK  118  A    between atoms: _302  and  _303
REMARK  119  A    between atoms: _302  and  _305
REMARK  120  A    between atoms: _305  and  _306
REMARK  121  A    between atoms: _306  and  _307
REMARK  122  A    between atoms: _309  and  _311
REMARK  123  A    between atoms: _311  and  _312
REMARK  124  A    between atoms: _311  and  _314
REMARK  125  A    between atoms: _314  and  _315
REMARK  126  A    between atoms: _318  and  _320
REMARK  127  A    between atoms: _320  and  _321
REMARK  128  A    between atoms: _320  and  _323
REMARK  129  A    between atoms: _323  and  _324
REMARK  130  A    between atoms: _324  and  _325
REMARK  131  A    between atoms: _330  and  _332
REMARK  132  A    between atoms: _332  and  _333
REMARK  133  A    between atoms: _336  and  _338
REMARK  134  A    between atoms: _338  and  _339
REMARK  135  A    between atoms: _341  and  _343
REMARK  136  A    between atoms: _343  and  _344
REMARK  137  A    between atoms: _343  and  _346
REMARK  138  A    between atoms: _346  and  _347
REMARK  139  A    between atoms: _350  and  _352
REMARK  140  A    between atoms: _352  and  _353
REMARK  141  A    between atoms: _352  and  _355
REMARK  142  A    between atoms: _355  and  _356
REMARK  143  A    between atoms: _358  and  _360
REMARK  144  A    between atoms: _360  and  _361
REMARK  145  A    between atoms: _360  and  _363
REMARK  146  A    between atoms: _363  and  _364
REMARK  147  A    between atoms: _369  and  _371
REMARK  148  A    between atoms: _371  and  _372
REMARK  149  A    between atoms: _371  and  _374
REMARK  150  A    between atoms: _374  and  _375
REMARK  151  A    between atoms: _375  and  _376
REMARK  152  A    between atoms: _379  and  _381
REMARK  153  A    between atoms: _381  and  _382
REMARK  154  A    between atoms: _385  and  _387
REMARK  155  A    between atoms: _387  and  _388
REMARK  156  A    between atoms: _387  and  _390
REMARK  157  A    between atoms: _390  and  _391
REMARK  158  A    between atoms: _397  and  _399
REMARK  159  A    between atoms: _399  and  _400
REMARK  160  A    between atoms: _399  and  _402
REMARK  161  A    between atoms: _402  and  _403
REMARK  162  A    between atoms: _406  and  _408
REMARK  163  A    between atoms: _408  and  _409
REMARK  164  A    between atoms: _408  and  _411
REMARK  165  A    between atoms: _411  and  _412
REMARK  166  A    between atoms: _415  and  _417
REMARK  167  A    between atoms: _417  and  _418
REMARK  168  A    between atoms: _417  and  _420
REMARK  169  A    between atoms: _420  and  _421
REMARK  170  A    between atoms: _424  and  _426
REMARK  171  A    between atoms: _426  and  _427
REMARK  172  A    between atoms: _426  and  _429
REMARK  173  A    between atoms: _429  and  _430
REMARK  174  A    between atoms: _433  and  _435
REMARK  175  A    between atoms: _435  and  _436
REMARK  176  A    between atoms: _435  and  _438
REMARK  177  A    between atoms: _438  and  _439
REMARK  178  A    between atoms: _442  and  _444
REMARK  179  A    between atoms: _444  and  _445
REMARK  180  A    between atoms: _448  and  _450
REMARK  181  A    between atoms: _450  and  _451
REMARK  182  A    between atoms: _450  and  _453
REMARK  183  A    between atoms: _453  and  _454
REMARK  184  A    between atoms: _456  and  _458
REMARK  185  A    between atoms: _458  and  _459
REMARK  186  A    between atoms: _458  and  _461
REMARK  187  A    between atoms: _464  and  _466
REMARK  188  A    between atoms: _466  and  _467
REMARK  189  A    between atoms: _466  and  _469
REMARK  190  A    between atoms: _469  and  _470
REMARK  191  A    between atoms: _472  and  _474
REMARK  192  A    between atoms: _474  and  _475
REMARK  193  A    between atoms: _474  and  _477
REMARK  194  A    between atoms: _477  and  _478
REMARK  195  A    between atoms: _484  and  _486
REMARK  196  A    between atoms: _486  and  _487
REMARK  197  A    between atoms: _486  and  _489
REMARK  198  A    between atoms: _489  and  _490
REMARK  199  A    between atoms: _493  and  _495
REMARK  200  A    between atoms: _495  and  _496
REMARK  201  A    between atoms: _498  and  _500
REMARK  202  A    between atoms: _500  and  _501
REMARK  203  A    between atoms: _500  and  _503
REMARK  204  A    between atoms: _503  and  _504
REMARK  205  A    between atoms: _507  and  _509
REMARK  206  A    between atoms: _509  and  _510
REMARK  207  A    between atoms: _509  and  _512
REMARK  208  A    between atoms: _512  and  _513
REMARK  209  A    between atoms: _519  and  _521
REMARK  210  A    between atoms: _521  and  _522
REMARK  211  A    between atoms: _524  and  _526
REMARK  212  A    between atoms: _526  and  _527
REMARK  213  A    between atoms: _526  and  _529
REMARK  214  A    between atoms: _529  and  _530
REMARK  215  A    between atoms: _530  and  _531
REMARK  216  A    between atoms: _531  and  _532
REMARK  217  A    between atoms: _532  and  _533
REMARK  218  A    between atoms: _537  and  _539
REMARK  219  A    between atoms: _539  and  _540
REMARK  220  A    between atoms: _542  and  _544
REMARK  221  A    between atoms: _544  and  _545
REMARK  222  A    between atoms: _544  and  _547
REMARK  223  A    between atoms: _550  and  _552
REMARK  224  A    between atoms: _552  and  _553
REMARK  225  A    between atoms: _555  and  _557
REMARK  226  A    between atoms: _557  and  _558
REMARK  227  A    between atoms: _557  and  _560
REMARK  228  A    between atoms: _560  and  _561
REMARK                            x       y       z     vdW  Elec       q    Type
REMARK                         _______ _______ _______ _____ _____    ______ ____
ROOT
ATOM      1  O   HOH     1      28.433  -4.124  -7.978  0.00  0.00    +0.000 OA
ENDROOT
TORSDOF 0
REMARK  Name = ../refined-set-2016/4pox/4pox_pocket.pdb
REMARK  228 active torsions:
REMARK  status: ('A' for Active; 'I' for Inactive)
REMARK    1  A    between atoms: _1  and  _3
REMARK    2  A    between atoms: _3  and  _4
REMARK    3  A    between atoms: _3  and  _6
REMARK    4  A    between atoms: _6  and  _7
REMARK    5  A    between atoms: _10  and  _12
REMARK    6  A    between atoms: _12  and  _13
REMARK    7  A    between atoms: _12  and  _15
REMARK    8  A    between atoms: _15  and  _16
REMARK    9  A    between atoms: _16  and  _17
REMARK   10  A    between atoms: _20  and  _22
REMARK   11  A    between atoms: _22  and  _23
REMARK   12  A    between atoms: _25  and  _27
REMARK   13  A    between atoms: _27  and  _28
REMARK   14  A    between atoms: _27  and  _30
REMARK   15  A    between atoms: _30  and  _31
REMARK   16  A    between atoms: _33  and  _35
REMARK   17  A    between atoms: _35  and  _36
REMARK   18  A    between atoms: _35  and  _38
REMARK   19  A    between atoms: _38  and  _39
REMARK   20  A    between atoms: _44  and  _45
REMARK   21  A    between atoms: _47  and  _49
REMARK   22  A    between atoms: _49  and  _50
REMARK   23  A    between atoms: _53  and  _55
REMARK   24  A    between atoms: _55  and  _56
REMARK   25  A    between atoms: _55  and  _58
REMARK   26  A    between atoms: _58  and  _59
REMARK   27  A    between atoms: _64  and  _65
REMARK   28  A    between atoms: _67  and  _69
REMARK   29  A    between atoms: _69  and  _70
REMARK   30  A    between atoms: _69  and  _72
REMARK   31  A    between atoms: _72  and  _73
REMARK   32  A    between atoms: _78  and  _80
REMARK   33  A    between atoms: _80  and  _81
REMARK   34  A    between atoms: _80  and  _83
REMARK   35  A    between atoms: _83  and  _84
REMARK   36  A    between atoms: _90  and  _92
REMARK   37  A    between atoms: _92  and  _93
REMARK   38  A    between atoms: _92  and  _95
REMARK   39  A    between atoms: _95  and  _96
REMARK   40  A    between atoms: _99  and  _101
REMARK   41  A    between atoms: _101  and  _102
REMARK   42  A    between atoms: _101  and  _104
REMARK   43  A    between atoms: _104  and  _105
REMARK   44  A    between atoms: _105  and  _106
REMARK   45  A    between atoms: _111  and  _113
REMARK   46  A    between atoms: _113  and  _114
REMARK   47  A    between atoms: _117  and  _119
REMARK   48  A    between atoms: _119  and  _120
REMARK   49  A    between atoms: _119  and  _122
REMARK   50  A    between atoms: _122  and  _123
REMARK   51  A    between atoms: _133  and  _135
REMARK   52  A    between atoms: _135  and  _136
REMARK   53  A    between atoms: _135  and  _138
REMARK   54  A    between atoms: _138  and  _139
REMARK   55  A    between atoms: _142  and  _144
REMARK   56  A    between atoms: _144  and  _145
REMARK   57  A    between atoms: _144  and  _147
REMARK   58  A    between atoms: _147  and  _148
REMARK   59  A    between atoms: _151  and  _153
REMARK   60  A    between atoms: _153  and  _154
REMARK   61  A    between atoms: _153  and  _156
REMARK   62  A    between atoms: _156  and  _157
REMARK   63  A    between atoms: _160  and  _162
REMARK   64  A    between atoms: _162  and  _163
REMARK   65  A    between atoms: _162  and  _165
REMARK   66  A    between atoms: _165  and  _166
REMARK   67  A    between atoms: _166  and  _167
REMARK   68  A    between atoms: _169  and  _171
REMARK   69  A    between atoms: _171  and  _172
REMARK   70  A    between atoms: _175  and  _177
REMARK   71  A    between atoms: _177  and  _178
REMARK   72  A    between atoms: _181  and  _183
REMARK   73  A    between atoms: _183  and  _184
REMARK   74  A    between atoms: _183  and  _186
REMARK   75  A    between atoms: _186  and  _187
REMARK   76  A    between atoms: _187  and  _188
REMARK   77  A    between atoms: _190  and  _192
REMARK   78  A    between atoms: _192  and  _193
REMARK   79  A    between atoms: _195  and  _197
REMARK   80  A    between atoms: _197  and  _198
REMARK   81  A    between atoms: _197  and  _200
REMARK   82  A    between atoms: _200  and  _201
REMARK   83  A    between atoms: _204  and  _206
REMARK   84  A    between atoms: _206  and  _207
REMARK   85  A    between atoms: _206  and  _209
REMARK   86  A    between atoms: _209  and  _210
REMARK   87  A    between atoms: _210  and  _211
REMARK   88  A    between atoms: _216  and  _218
REMARK   89  A    between atoms: _218  and  _219
REMARK   90  A    between atoms: _218  and  _221
REMARK   91  A    between atoms: _221  and  _222
REMARK   92  A    between atoms: _222  and  _223
REMARK   93  A    between atoms: _223  and  _224
REMARK   94  A    between atoms: _233  and  _235
REMARK   95  A    between atoms: _235  and  _236
REMARK   96  A    between atoms: _235  and  _238
REMARK   97  A    between atoms: _238  and  _239
REMARK   98  A    between atoms: _246  and  _247
REMARK   99  A    between atoms: _252  and  _254
REMARK  100  A    between atoms: _254  and  _255
REMARK  101  A    between atoms: _254  and  _257
REMARK  102  A    between atoms: _257  and  _258
REMARK  103  A    between atoms: _263  and  _264
REMARK  104  A    between atoms: _266  and  _268
REMARK  105  A    between atoms: _268  and  _269
REMARK  106  A    between atoms: _268  and  _271
REMARK  107  A    between atoms: _271  and  _272
REMARK  108  A    between atoms: _275  and  _277
REMARK  109  A    between atoms: _277  and  _278
REMARK  110  A    between atoms: _277  and  _280
REMARK  111  A    between atoms: _280  and  _281
REMARK  112  A    between atoms: _284  and  _286
REMARK  113  A    between atoms: _286  and  _287
REMARK  114  A    between atoms: _286  and  _289
REMARK  115  A    between atoms: _289  and  _290
REMARK  116  A    between atoms: _294  and  _295
REMARK  117  A    between atoms: _300  and  _302
REMARK  118  A    between atoms: _302  and  _303
REMARK  119  A    between atoms: _302  and  _305
REMARK  120  A    between atoms: _305  and  _306
REMARK  121  A    between atoms: _306  and  _307
REMARK  122  A    between atoms: _309  and  _311
REMARK  123  A    between atoms: _311  and  _312
REMARK  124  A    between atoms: _311  and  _314
REMARK  125  A    between atoms: _314  and  _315
REMARK  126  A    between atoms: _318  and  _320
REMARK  127  A    between atoms: _320  and  _321
REMARK  128  A    between atoms: _320  and  _323
REMARK  129  A    between atoms: _323  and  _324
REMARK  130  A    between atoms: _324  and  _325
REMARK  131  A    between atoms: _330  and  _332
REMARK  132  A    between atoms: _332  and  _333
REMARK  133  A    between atoms: _336  and  _338
REMARK  134  A    between atoms: _338  and  _339
REMARK  135  A    between atoms: _341  and  _343
REMARK  136  A    between atoms: _343  and  _344
REMARK  137  A    between atoms: _343  and  _346
REMARK  138  A    between atoms: _346  and  _347
REMARK  139  A    between atoms: _350  and  _352
REMARK  140  A    between atoms: _352  and  _353
REMARK  141  A    between atoms: _352  and  _355
REMARK  142  A    between atoms: _355  and  _356
REMARK  143  A    between atoms: _358  and  _360
REMARK  144  A    between atoms: _360  and  _361
REMARK  145  A    between atoms: _360  and  _363
REMARK  146  A    between atoms: _363  and  _364
REMARK  147  A    between atoms: _369  and  _371
REMARK  148  A    between atoms: _371  and  _372
REMARK  149  A    between atoms: _371  and  _374
REMARK  150  A    between atoms: _374  and  _375
REMARK  151  A    between atoms: _375  and  _376
REMARK  152  A    between atoms: _379  and  _381
REMARK  153  A    between atoms: _381  and  _382
REMARK  154  A    between atoms: _385  and  _387
REMARK  155  A    between atoms: _387  and  _388
REMARK  156  A    between atoms: _387  and  _390
REMARK  157  A    between atoms: _390  and  _391
REMARK  158  A    between atoms: _397  and  _399
REMARK  159  A    between atoms: _399  and  _400
REMARK  160  A    between atoms: _399  and  _402
REMARK  161  A    between atoms: _402  and  _403
REMARK  162  A    between atoms: _406  and  _408
REMARK  163  A    between atoms: _408  and  _409
REMARK  164  A    between atoms: _408  and  _411
REMARK  165  A    between atoms: _411  and  _412
REMARK  166  A    between atoms: _415  and  _417
REMARK  167  A    between atoms: _417  and  _418
REMARK  168  A    between atoms: _417  and  _420
REMARK  169  A    between atoms: _420  and  _421
REMARK  170  A    between atoms: _424  and  _426
REMARK  171  A    between atoms: _426  and  _427
REMARK  172  A    between atoms: _426  and  _429
REMARK  173  A    between atoms: _429  and  _430
REMARK  174  A    between atoms: _433  and  _435
REMARK  175  A    between atoms: _435  and  _436
REMARK  176  A    between atoms: _435  and  _438
REMARK  177  A    between atoms: _438  and  _439
REMARK  178  A    between atoms: _442  and  _444
REMARK  179  A    between atoms: _444  and  _445
REMARK  180  A    between atoms: _448  and  _450
REMARK  181  A    between atoms: _450  and  _451
REMARK  182  A    between atoms: _450  and  _453
REMARK  183  A    between atoms: _453  and  _454
REMARK  184  A    between atoms: _456  and  _458
REMARK  185  A    between atoms: _458  and  _459
REMARK  186  A    between atoms: _458  and  _461
REMARK  187  A    between atoms: _464  and  _466
REMARK  188  A    between atoms: _466  and  _467
REMARK  189  A    between atoms: _466  and  _469
REMARK  190  A    between atoms: _469  and  _470
REMARK  191  A    between atoms: _472  and  _474
REMARK  192  A    between atoms: _474  and  _475
REMARK  193  A    between atoms: _474  and  _477
REMARK  194  A    between atoms: _477  and  _478
REMARK  195  A    between atoms: _484  and  _486
REMARK  196  A    between atoms: _486  and  _487
REMARK  197  A    between atoms: _486  and  _489
REMARK  198  A    between atoms: _489  and  _490
REMARK  199  A    between atoms: _493  and  _495
REMARK  200  A    between atoms: _495  and  _496
REMARK  201  A    between atoms: _498  and  _500
REMARK  202  A    between atoms: _500  and  _501
REMARK  203  A    between atoms: _500  and  _503
REMARK  204  A    between atoms: _503  and  _504
REMARK  205  A    between atoms: _507  and  _509
REMARK  206  A    between atoms: _509  and  _510
REMARK  207  A    between atoms: _509  and  _512
REMARK  208  A    between atoms: _512  and  _513
REMARK  209  A    between atoms: _519  and  _521
REMARK  210  A    between atoms: _521  and  _522
REMARK  211  A    between atoms: _524  and  _526
REMARK  212  A    between atoms: _526  and  _527
REMARK  213  A    between atoms: _526  and  _529
REMARK  214  A    between atoms: _529  and  _530
REMARK  215  A    between atoms: _530  and  _531
REMARK  216  A    between atoms: _531  and  _532
REMARK  217  A    between atoms: _532  and  _533
REMARK  218  A    between atoms: _537  and  _539
REMARK  219  A    between atoms: _539  and  _540
REMARK  220  A    between atoms: _542  and  _544
REMARK  221  A    between atoms: _544  and  _545
REMARK  222  A    between atoms: _544  and  _547
REMARK  223  A    between atoms: _550  and  _552
REMARK  224  A    between atoms: _552  and  _553
REMARK  225  A    between atoms: _555  and  _557
REMARK  226  A    between atoms: _557  and  _558
REMARK  227  A    between atoms: _557  and  _560
REMARK  228  A    between atoms: _560  and  _561
REMARK                            x       y       z     vdW  Elec       q    Type
REMARK                         _______ _______ _______ _____ _____    ______ ____
ROOT
ATOM      1  O   HOH     1      16.366  -4.562 -12.873  0.00  0.00    +0.000 OA
ENDROOT
TORSDOF 0
REMARK  Name = ../refined-set-2016/4pox/4pox_pocket.pdb
REMARK  228 active torsions:
REMARK  status: ('A' for Active; 'I' for Inactive)
REMARK    1  A    between atoms: _1  and  _3
REMARK    2  A    between atoms: _3  and  _4
REMARK    3  A    between atoms: _3  and  _6
REMARK    4  A    between atoms: _6  and  _7
REMARK    5  A    between atoms: _10  and  _12
REMARK    6  A    between atoms: _12  and  _13
REMARK    7  A    between atoms: _12  and  _15
REMARK    8  A    between atoms: _15  and  _16
REMARK    9  A    between atoms: _16  and  _17
REMARK   10  A    between atoms: _20  and  _22
REMARK   11  A    between atoms: _22  and  _23
REMARK   12  A    between atoms: _25  and  _27
REMARK   13  A    between atoms: _27  and  _28
REMARK   14  A    between atoms: _27  and  _30
REMARK   15  A    between atoms: _30  and  _31
REMARK   16  A    between atoms: _33  and  _35
REMARK   17  A    between atoms: _35  and  _36
REMARK   18  A    between atoms: _35  and  _38
REMARK   19  A    between atoms: _38  and  _39
REMARK   20  A    between atoms: _44  and  _45
REMARK   21  A    between atoms: _47  and  _49
REMARK   22  A    between atoms: _49  and  _50
REMARK   23  A    between atoms: _53  and  _55
REMARK   24  A    between atoms: _55  and  _56
REMARK   25  A    between atoms: _55  and  _58
REMARK   26  A    between atoms: _58  and  _59
REMARK   27  A    between atoms: _64  and  _65
REMARK   28  A    between atoms: _67  and  _69
REMARK   29  A    between atoms: _69  and  _70
REMARK   30  A    between atoms: _69  and  _72
REMARK   31  A    between atoms: _72  and  _73
REMARK   32  A    between atoms: _78  and  _80
REMARK   33  A    between atoms: _80  and  _81
REMARK   34  A    between atoms: _80  and  _83
REMARK   35  A    between atoms: _83  and  _84
REMARK   36  A    between atoms: _90  and  _92
REMARK   37  A    between atoms: _92  and  _93
REMARK   38  A    between atoms: _92  and  _95
REMARK   39  A    between atoms: _95  and  _96
REMARK   40  A    between atoms: _99  and  _101
REMARK   41  A    between atoms: _101  and  _102
REMARK   42  A    between atoms: _101  and  _104
REMARK   43  A    between atoms: _104  and  _105
REMARK   44  A    between atoms: _105  and  _106
REMARK   45  A    between atoms: _111  and  _113
REMARK   46  A    between atoms: _113  and  _114
REMARK   47  A    between atoms: _117  and  _119
REMARK   48  A    between atoms: _119  and  _120
REMARK   49  A    between atoms: _119  and  _122
REMARK   50  A    between atoms: _122  and  _123
REMARK   51  A    between atoms: _133  and  _135
REMARK   52  A    between atoms: _135  and  _136
REMARK   53  A    between atoms: _135  and  _138
REMARK   54  A    between atoms: _138  and  _139
REMARK   55  A    between atoms: _142  and  _144
REMARK   56  A    between atoms: _144  and  _145
REMARK   57  A    between atoms: _144  and  _147
REMARK   58  A    between atoms: _147  and  _148
REMARK   59  A    between atoms: _151  and  _153
REMARK   60  A    between atoms: _153  and  _154
REMARK   61  A    between atoms: _153  and  _156
REMARK   62  A    between atoms: _156  and  _157
REMARK   63  A    between atoms: _160  and  _162
REMARK   64  A    between atoms: _162  and  _163
REMARK   65  A    between atoms: _162  and  _165
REMARK   66  A    between atoms: _165  and  _166
REMARK   67  A    between atoms: _166  and  _167
REMARK   68  A    between atoms: _169  and  _171
REMARK   69  A    between atoms: _171  and  _172
REMARK   70  A    between atoms: _175  and  _177
REMARK   71  A    between atoms: _177  and  _178
REMARK   72  A    between atoms: _181  and  _183
REMARK   73  A    between atoms: _183  and  _184
REMARK   74  A    between atoms: _183  and  _186
REMARK   75  A    between atoms: _186  and  _187
REMARK   76  A    between atoms: _187  and  _188
REMARK   77  A    between atoms: _190  and  _192
REMARK   78  A    between atoms: _192  and  _193
REMARK   79  A    between atoms: _195  and  _197
REMARK   80  A    between atoms: _197  and  _198
REMARK   81  A    between atoms: _197  and  _200
REMARK   82  A    between atoms: _200  and  _201
REMARK   83  A    between atoms: _204  and  _206
REMARK   84  A    between atoms: _206  and  _207
REMARK   85  A    between atoms: _206  and  _209
REMARK   86  A    between atoms: _209  and  _210
REMARK   87  A    between atoms: _210  and  _211
REMARK   88  A    between atoms: _216  and  _218
REMARK   89  A    between atoms: _218  and  _219
REMARK   90  A    between atoms: _218  and  _221
REMARK   91  A    between atoms: _221  and  _222
REMARK   92  A    between atoms: _222  and  _223
REMARK   93  A    between atoms: _223  and  _224
REMARK   94  A    between atoms: _233  and  _235
REMARK   95  A    between atoms: _235  and  _236
REMARK   96  A    between atoms: _235  and  _238
REMARK   97  A    between atoms: _238  and  _239
REMARK   98  A    between atoms: _246  and  _247
REMARK   99  A    between atoms: _252  and  _254
REMARK  100  A    between atoms: _254  and  _255
REMARK  101  A    between atoms: _254  and  _257
REMARK  102  A    between atoms: _257  and  _258
REMARK  103  A    between atoms: _263  and  _264
REMARK  104  A    between atoms: _266  and  _268
REMARK  105  A    between atoms: _268  and  _269
REMARK  106  A    between atoms: _268  and  _271
REMARK  107  A    between atoms: _271  and  _272
REMARK  108  A    between atoms: _275  and  _277
REMARK  109  A    between atoms: _277  and  _278
REMARK  110  A    between atoms: _277  and  _280
REMARK  111  A    between atoms: _280  and  _281
REMARK  112  A    between atoms: _284  and  _286
REMARK  113  A    between atoms: _286  and  _287
REMARK  114  A    between atoms: _286  and  _289
REMARK  115  A    between atoms: _289  and  _290
REMARK  116  A    between atoms: _294  and  _295
REMARK  117  A    between atoms: _300  and  _302
REMARK  118  A    between atoms: _302  and  _303
REMARK  119  A    between atoms: _302  and  _305
REMARK  120  A    between atoms: _305  and  _306
REMARK  121  A    between atoms: _306  and  _307
REMARK  122  A    between atoms: _309  and  _311
REMARK  123  A    between atoms: _311  and  _312
REMARK  124  A    between atoms: _311  and  _314
REMARK  125  A    between atoms: _314  and  _315
REMARK  126  A    between atoms: _318  and  _320
REMARK  127  A    between atoms: _320  and  _321
REMARK  128  A    between atoms: _320  and  _323
REMARK  129  A    between atoms: _323  and  _324
REMARK  130  A    between atoms: _324  and  _325
REMARK  131  A    between atoms: _330  and  _332
REMARK  132  A    between atoms: _332  and  _333
REMARK  133  A    between atoms: _336  and  _338
REMARK  134  A    between atoms: _338  and  _339
REMARK  135  A    between atoms: _341  and  _343
REMARK  136  A    between atoms: _343  and  _344
REMARK  137  A    between atoms: _343  and  _346
REMARK  138  A    between atoms: _346  and  _347
REMARK  139  A    between atoms: _350  and  _352
REMARK  140  A    between atoms: _352  and  _353
REMARK  141  A    between atoms: _352  and  _355
REMARK  142  A    between atoms: _355  and  _356
REMARK  143  A    between atoms: _358  and  _360
REMARK  144  A    between atoms: _360  and  _361
REMARK  145  A    between atoms: _360  and  _363
REMARK  146  A    between atoms: _363  and  _364
REMARK  147  A    between atoms: _369  and  _371
REMARK  148  A    between atoms: _371  and  _372
REMARK  149  A    between atoms: _371  and  _374
REMARK  150  A    between atoms: _374  and  _375
REMARK  151  A    between atoms: _375  and  _376
REMARK  152  A    between atoms: _379  and  _381
REMARK  153  A    between atoms: _381  and  _382
REMARK  154  A    between atoms: _385  and  _387
REMARK  155  A    between atoms: _387  and  _388
REMARK  156  A    between atoms: _387  and  _390
REMARK  157  A    between atoms: _390  and  _391
REMARK  158  A    between atoms: _397  and  _399
REMARK  159  A    between atoms: _399  and  _400
REMARK  160  A    between atoms: _399  and  _402
REMARK  161  A    between atoms: _402  and  _403
REMARK  162  A    between atoms: _406  and  _408
REMARK  163  A    between atoms: _408  and  _409
REMARK  164  A    between atoms: _408  and  _411
REMARK  165  A    between atoms: _411  and  _412
REMARK  166  A    between atoms: _415  and  _417
REMARK  167  A    between atoms: _417  and  _418
REMARK  168  A    between atoms: _417  and  _420
REMARK  169  A    between atoms: _420  and  _421
REMARK  170  A    between atoms: _424  and  _426
REMARK  171  A    between atoms: _426  and  _427
REMARK  172  A    between atoms: _426  and  _429
REMARK  173  A    between atoms: _429  and  _430
REMARK  174  A    between atoms: _433  and  _435
REMARK  175  A    between atoms: _435  and  _436
REMARK  176  A    between atoms: _435  and  _438
REMARK  177  A    between atoms: _438  and  _439
REMARK  178  A    between atoms: _442  and  _444
REMARK  179  A    between atoms: _444  and  _445
REMARK  180  A    between atoms: _448  and  _450
REMARK  181  A    between atoms: _450  and  _451
REMARK  182  A    between atoms: _450  and  _453
REMARK  183  A    between atoms: _453  and  _454
REMARK  184  A    between atoms: _456  and  _458
REMARK  185  A    between atoms: _458  and  _459
REMARK  186  A    between atoms: _458  and  _461
REMARK  187  A    between atoms: _464  and  _466
REMARK  188  A    between atoms: _466  and  _467
REMARK  189  A    between atoms: _466  and  _469
REMARK  190  A    between atoms: _469  and  _470
REMARK  191  A    between atoms: _472  and  _474
REMARK  192  A    between atoms: _474  and  _475
REMARK  193  A    between atoms: _474  and  _477
REMARK  194  A    between atoms: _477  and  _478
REMARK  195  A    between atoms: _484  and  _486
REMARK  196  A    between atoms: _486  and  _487
REMARK  197  A    between atoms: _486  and  _489
REMARK  198  A    between atoms: _489  and  _490
REMARK  199  A    between atoms: _493  and  _495
REMARK  200  A    between atoms: _495  and  _496
REMARK  201  A    between atoms: _498  and  _500
REMARK  202  A    between atoms: _500  and  _501
REMARK  203  A    between atoms: _500  and  _503
REMARK  204  A    between atoms: _503  and  _504
REMARK  205  A    between atoms: _507  and  _509
REMARK  206  A    between atoms: _509  and  _510
REMARK  207  A    between atoms: _509  and  _512
REMARK  208  A    between atoms: _512  and  _513
REMARK  209  A    between atoms: _519  and  _521
REMARK  210  A    between atoms: _521  and  _522
REMARK  211  A    between atoms: _524  and  _526
REMARK  212  A    between atoms: _526  and  _527
REMARK  213  A    between atoms: _526  and  _529
REMARK  214  A    between atoms: _529  and  _530
REMARK  215  A    between atoms: _530  and  _531
REMARK  216  A    between atoms: _531  and  _532
REMARK  217  A    between atoms: _532  and  _533
REMARK  218  A    between atoms: _537  and  _539
REMARK  219  A    between atoms: _539  and  _540
REMARK  220  A    between atoms: _542  and  _544
REMARK  221  A    between atoms: _544  and  _545
REMARK  222  A    between atoms: _544  and  _547
REMARK  223  A    between atoms: _550  and  _552
REMARK  224  A    between atoms: _552  and  _553
REMARK  225  A    between atoms: _555  and  _557
REMARK  226  A    between atoms: _557  and  _558
REMARK  227  A    between atoms: _557  and  _560
REMARK  228  A    between atoms: _560  and  _561
REMARK                            x       y       z     vdW  Elec       q    Type
REMARK                         _______ _______ _______ _____ _____    ______ ____
ROOT
ATOM      1  O   HOH     1      19.308  -8.952   5.913  0.00  0.00    +0.000 OA
ENDROOT
TORSDOF 0
REMARK  Name = ../refined-set-2016/4pox/4pox_pocket.pdb
REMARK  228 active torsions:
REMARK  status: ('A' for Active; 'I' for Inactive)
REMARK    1  A    between atoms: _1  and  _3
REMARK    2  A    between atoms: _3  and  _4
REMARK    3  A    between atoms: _3  and  _6
REMARK    4  A    between atoms: _6  and  _7
REMARK    5  A    between atoms: _10  and  _12
REMARK    6  A    between atoms: _12  and  _13
REMARK    7  A    between atoms: _12  and  _15
REMARK    8  A    between atoms: _15  and  _16
REMARK    9  A    between atoms: _16  and  _17
REMARK   10  A    between atoms: _20  and  _22
REMARK   11  A    between atoms: _22  and  _23
REMARK   12  A    between atoms: _25  and  _27
REMARK   13  A    between atoms: _27  and  _28
REMARK   14  A    between atoms: _27  and  _30
REMARK   15  A    between atoms: _30  and  _31
REMARK   16  A    between atoms: _33  and  _35
REMARK   17  A    between atoms: _35  and  _36
REMARK   18  A    between atoms: _35  and  _38
REMARK   19  A    between atoms: _38  and  _39
REMARK   20  A    between atoms: _44  and  _45
REMARK   21  A    between atoms: _47  and  _49
REMARK   22  A    between atoms: _49  and  _50
REMARK   23  A    between atoms: _53  and  _55
REMARK   24  A    between atoms: _55  and  _56
REMARK   25  A    between atoms: _55  and  _58
REMARK   26  A    between atoms: _58  and  _59
REMARK   27  A    between atoms: _64  and  _65
REMARK   28  A    between atoms: _67  and  _69
REMARK   29  A    between atoms: _69  and  _70
REMARK   30  A    between atoms: _69  and  _72
REMARK   31  A    between atoms: _72  and  _73
REMARK   32  A    between atoms: _78  and  _80
REMARK   33  A    between atoms: _80  and  _81
REMARK   34  A    between atoms: _80  and  _83
REMARK   35  A    between atoms: _83  and  _84
REMARK   36  A    between atoms: _90  and  _92
REMARK   37  A    between atoms: _92  and  _93
REMARK   38  A    between atoms: _92  and  _95
REMARK   39  A    between atoms: _95  and  _96
REMARK   40  A    between atoms: _99  and  _101
REMARK   41  A    between atoms: _101  and  _102
REMARK   42  A    between atoms: _101  and  _104
REMARK   43  A    between atoms: _104  and  _105
REMARK   44  A    between atoms: _105  and  _106
REMARK   45  A    between atoms: _111  and  _113
REMARK   46  A    between atoms: _113  and  _114
REMARK   47  A    between atoms: _117  and  _119
REMARK   48  A    between atoms: _119  and  _120
REMARK   49  A    between atoms: _119  and  _122
REMARK   50  A    between atoms: _122  and  _123
REMARK   51  A    between atoms: _133  and  _135
REMARK   52  A    between atoms: _135  and  _136
REMARK   53  A    between atoms: _135  and  _138
REMARK   54  A    between atoms: _138  and  _139
REMARK   55  A    between atoms: _142  and  _144
REMARK   56  A    between atoms: _144  and  _145
REMARK   57  A    between atoms: _144  and  _147
REMARK   58  A    between atoms: _147  and  _148
REMARK   59  A    between atoms: _151  and  _153
REMARK   60  A    between atoms: _153  and  _154
REMARK   61  A    between atoms: _153  and  _156
REMARK   62  A    between atoms: _156  and  _157
REMARK   63  A    between atoms: _160  and  _162
REMARK   64  A    between atoms: _162  and  _163
REMARK   65  A    between atoms: _162  and  _165
REMARK   66  A    between atoms: _165  and  _166
REMARK   67  A    between atoms: _166  and  _167
REMARK   68  A    between atoms: _169  and  _171
REMARK   69  A    between atoms: _171  and  _172
REMARK   70  A    between atoms: _175  and  _177
REMARK   71  A    between atoms: _177  and  _178
REMARK   72  A    between atoms: _181  and  _183
REMARK   73  A    between atoms: _183  and  _184
REMARK   74  A    between atoms: _183  and  _186
REMARK   75  A    between atoms: _186  and  _187
REMARK   76  A    between atoms: _187  and  _188
REMARK   77  A    between atoms: _190  and  _192
REMARK   78  A    between atoms: _192  and  _193
REMARK   79  A    between atoms: _195  and  _197
REMARK   80  A    between atoms: _197  and  _198
REMARK   81  A    between atoms: _197  and  _200
REMARK   82  A    between atoms: _200  and  _201
REMARK   83  A    between atoms: _204  and  _206
REMARK   84  A    between atoms: _206  and  _207
REMARK   85  A    between atoms: _206  and  _209
REMARK   86  A    between atoms: _209  and  _210
REMARK   87  A    between atoms: _210  and  _211
REMARK   88  A    between atoms: _216  and  _218
REMARK   89  A    between atoms: _218  and  _219
REMARK   90  A    between atoms: _218  and  _221
REMARK   91  A    between atoms: _221  and  _222
REMARK   92  A    between atoms: _222  and  _223
REMARK   93  A    between atoms: _223  and  _224
REMARK   94  A    between atoms: _233  and  _235
REMARK   95  A    between atoms: _235  and  _236
REMARK   96  A    between atoms: _235  and  _238
REMARK   97  A    between atoms: _238  and  _239
REMARK   98  A    between atoms: _246  and  _247
REMARK   99  A    between atoms: _252  and  _254
REMARK  100  A    between atoms: _254  and  _255
REMARK  101  A    between atoms: _254  and  _257
REMARK  102  A    between atoms: _257  and  _258
REMARK  103  A    between atoms: _263  and  _264
REMARK  104  A    between atoms: _266  and  _268
REMARK  105  A    between atoms: _268  and  _269
REMARK  106  A    between atoms: _268  and  _271
REMARK  107  A    between atoms: _271  and  _272
REMARK  108  A    between atoms: _275  and  _277
REMARK  109  A    between atoms: _277  and  _278
REMARK  110  A    between atoms: _277  and  _280
REMARK  111  A    between atoms: _280  and  _281
REMARK  112  A    between atoms: _284  and  _286
REMARK  113  A    between atoms: _286  and  _287
REMARK  114  A    between atoms: _286  and  _289
REMARK  115  A    between atoms: _289  and  _290
REMARK  116  A    between atoms: _294  and  _295
REMARK  117  A    between atoms: _300  and  _302
REMARK  118  A    between atoms: _302  and  _303
REMARK  119  A    between atoms: _302  and  _305
REMARK  120  A    between atoms: _305  and  _306
REMARK  121  A    between atoms: _306  and  _307
REMARK  122  A    between atoms: _309  and  _311
REMARK  123  A    between atoms: _311  and  _312
REMARK  124  A    between atoms: _311  and  _314
REMARK  125  A    between atoms: _314  and  _315
REMARK  126  A    between atoms: _318  and  _320
REMARK  127  A    between atoms: _320  and  _321
REMARK  128  A    between atoms: _320  and  _323
REMARK  129  A    between atoms: _323  and  _324
REMARK  130  A    between atoms: _324  and  _325
REMARK  131  A    between atoms: _330  and  _332
REMARK  132  A    between atoms: _332  and  _333
REMARK  133  A    between atoms: _336  and  _338
REMARK  134  A    between atoms: _338  and  _339
REMARK  135  A    between atoms: _341  and  _343
REMARK  136  A    between atoms: _343  and  _344
REMARK  137  A    between atoms: _343  and  _346
REMARK  138  A    between atoms: _346  and  _347
REMARK  139  A    between atoms: _350  and  _352
REMARK  140  A    between atoms: _352  and  _353
REMARK  141  A    between atoms: _352  and  _355
REMARK  142  A    between atoms: _355  and  _356
REMARK  143  A    between atoms: _358  and  _360
REMARK  144  A    between atoms: _360  and  _361
REMARK  145  A    between atoms: _360  and  _363
REMARK  146  A    between atoms: _363  and  _364
REMARK  147  A    between atoms: _369  and  _371
REMARK  148  A    between atoms: _371  and  _372
REMARK  149  A    between atoms: _371  and  _374
REMARK  150  A    between atoms: _374  and  _375
REMARK  151  A    between atoms: _375  and  _376
REMARK  152  A    between atoms: _379  and  _381
REMARK  153  A    between atoms: _381  and  _382
REMARK  154  A    between atoms: _385  and  _387
REMARK  155  A    between atoms: _387  and  _388
REMARK  156  A    between atoms: _387  and  _390
REMARK  157  A    between atoms: _390  and  _391
REMARK  158  A    between atoms: _397  and  _399
REMARK  159  A    between atoms: _399  and  _400
REMARK  160  A    between atoms: _399  and  _402
REMARK  161  A    between atoms: _402  and  _403
REMARK  162  A    between atoms: _406  and  _408
REMARK  163  A    between atoms: _408  and  _409
REMARK  164  A    between atoms: _408  and  _411
REMARK  165  A    between atoms: _411  and  _412
REMARK  166  A    between atoms: _415  and  _417
REMARK  167  A    between atoms: _417  and  _418
REMARK  168  A    between atoms: _417  and  _420
REMARK  169  A    between atoms: _420  and  _421
REMARK  170  A    between atoms: _424  and  _426
REMARK  171  A    between atoms: _426  and  _427
REMARK  172  A    between atoms: _426  and  _429
REMARK  173  A    between atoms: _429  and  _430
REMARK  174  A    between atoms: _433  and  _435
REMARK  175  A    between atoms: _435  and  _436
REMARK  176  A    between atoms: _435  and  _438
REMARK  177  A    between atoms: _438  and  _439
REMARK  178  A    between atoms: _442  and  _444
REMARK  179  A    between atoms: _444  and  _445
REMARK  180  A    between atoms: _448  and  _450
REMARK  181  A    between atoms: _450  and  _451
REMARK  182  A    between atoms: _450  and  _453
REMARK  183  A    between atoms: _453  and  _454
REMARK  184  A    between atoms: _456  and  _458
REMARK  185  A    between atoms: _458  and  _459
REMARK  186  A    between atoms: _458  and  _461
REMARK  187  A    between atoms: _464  and  _466
REMARK  188  A    between atoms: _466  and  _467
REMARK  189  A    between atoms: _466  and  _469
REMARK  190  A    between atoms: _469  and  _470
REMARK  191  A    between atoms: _472  and  _474
REMARK  192  A    between atoms: _474  and  _475
REMARK  193  A    between atoms: _474  and  _477
REMARK  194  A    between atoms: _477  and  _478
REMARK  195  A    between atoms: _484  and  _486
REMARK  196  A    between atoms: _486  and  _487
REMARK  197  A    between atoms: _486  and  _489
REMARK  198  A    between atoms: _489  and  _490
REMARK  199  A    between atoms: _493  and  _495
REMARK  200  A    between atoms: _495  and  _496
REMARK  201  A    between atoms: _498  and  _500
REMARK  202  A    between atoms: _500  and  _501
REMARK  203  A    between atoms: _500  and  _503
REMARK  204  A    between atoms: _503  and  _504
REMARK  205  A    between atoms: _507  and  _509
REMARK  206  A    between atoms: _509  and  _510
REMARK  207  A    between atoms: _509  and  _512
REMARK  208  A    between atoms: _512  and  _513
REMARK  209  A    between atoms: _519  and  _521
REMARK  210  A    between atoms: _521  and  _522
REMARK  211  A    between atoms: _524  and  _526
REMARK  212  A    between atoms: _526  and  _527
REMARK  213  A    between atoms: _526  and  _529
REMARK  214  A    between atoms: _529  and  _530
REMARK  215  A    between atoms: _530  and  _531
REMARK  216  A    between atoms: _531  and  _532
REMARK  217  A    between atoms: _532  and  _533
REMARK  218  A    between atoms: _537  and  _539
REMARK  219  A    between atoms: _539  and  _540
REMARK  220  A    between atoms: _542  and  _544
REMARK  221  A    between atoms: _544  and  _545
REMARK  222  A    between atoms: _544  and  _547
REMARK  223  A    between atoms: _550  and  _552
REMARK  224  A    between atoms: _552  and  _553
REMARK  225  A    between atoms: _555  and  _557
REMARK  226  A    between atoms: _557  and  _558
REMARK  227  A    between atoms: _557  and  _560
REMARK  228  A    between atoms: _560  and  _561
REMARK                            x       y       z     vdW  Elec       q    Type
REMARK                         _______ _______ _______ _____ _____    ______ ____
ROOT
ATOM      1  O   HOH     1      15.348  -7.003   1.298  0.00  0.00    +0.000 OA
ENDROOT
TORSDOF 0
REMARK  Name = ../refined-set-2016/4pox/4pox_pocket.pdb
REMARK  228 active torsions:
REMARK  status: ('A' for Active; 'I' for Inactive)
REMARK    1  A    between atoms: _1  and  _3
REMARK    2  A    between atoms: _3  and  _4
REMARK    3  A    between atoms: _3  and  _6
REMARK    4  A    between atoms: _6  and  _7
REMARK    5  A    between atoms: _10  and  _12
REMARK    6  A    between atoms: _12  and  _13
REMARK    7  A    between atoms: _12  and  _15
REMARK    8  A    between atoms: _15  and  _16
REMARK    9  A    between atoms: _16  and  _17
REMARK   10  A    between atoms: _20  and  _22
REMARK   11  A    between atoms: _22  and  _23
REMARK   12  A    between atoms: _25  and  _27
REMARK   13  A    between atoms: _27  and  _28
REMARK   14  A    between atoms: _27  and  _30
REMARK   15  A    between atoms: _30  and  _31
REMARK   16  A    between atoms: _33  and  _35
REMARK   17  A    between atoms: _35  and  _36
REMARK   18  A    between atoms: _35  and  _38
REMARK   19  A    between atoms: _38  and  _39
REMARK   20  A    between atoms: _44  and  _45
REMARK   21  A    between atoms: _47  and  _49
REMARK   22  A    between atoms: _49  and  _50
REMARK   23  A    between atoms: _53  and  _55
REMARK   24  A    between atoms: _55  and  _56
REMARK   25  A    between atoms: _55  and  _58
REMARK   26  A    between atoms: _58  and  _59
REMARK   27  A    between atoms: _64  and  _65
REMARK   28  A    between atoms: _67  and  _69
REMARK   29  A    between atoms: _69  and  _70
REMARK   30  A    between atoms: _69  and  _72
REMARK   31  A    between atoms: _72  and  _73
REMARK   32  A    between atoms: _78  and  _80
REMARK   33  A    between atoms: _80  and  _81
REMARK   34  A    between atoms: _80  and  _83
REMARK   35  A    between atoms: _83  and  _84
REMARK   36  A    between atoms: _90  and  _92
REMARK   37  A    between atoms: _92  and  _93
REMARK   38  A    between atoms: _92  and  _95
REMARK   39  A    between atoms: _95  and  _96
REMARK   40  A    between atoms: _99  and  _101
REMARK   41  A    between atoms: _101  and  _102
REMARK   42  A    between atoms: _101  and  _104
REMARK   43  A    between atoms: _104  and  _105
REMARK   44  A    between atoms: _105  and  _106
REMARK   45  A    between atoms: _111  and  _113
REMARK   46  A    between atoms: _113  and  _114
REMARK   47  A    between atoms: _117  and  _119
REMARK   48  A    between atoms: _119  and  _120
REMARK   49  A    between atoms: _119  and  _122
REMARK   50  A    between atoms: _122  and  _123
REMARK   51  A    between atoms: _133  and  _135
REMARK   52  A    between atoms: _135  and  _136
REMARK   53  A    between atoms: _135  and  _138
REMARK   54  A    between atoms: _138  and  _139
REMARK   55  A    between atoms: _142  and  _144
REMARK   56  A    between atoms: _144  and  _145
REMARK   57  A    between atoms: _144  and  _147
REMARK   58  A    between atoms: _147  and  _148
REMARK   59  A    between atoms: _151  and  _153
REMARK   60  A    between atoms: _153  and  _154
REMARK   61  A    between atoms: _153  and  _156
REMARK   62  A    between atoms: _156  and  _157
REMARK   63  A    between atoms: _160  and  _162
REMARK   64  A    between atoms: _162  and  _163
REMARK   65  A    between atoms: _162  and  _165
REMARK   66  A    between atoms: _165  and  _166
REMARK   67  A    between atoms: _166  and  _167
REMARK   68  A    between atoms: _169  and  _171
REMARK   69  A    between atoms: _171  and  _172
REMARK   70  A    between atoms: _175  and  _177
REMARK   71  A    between atoms: _177  and  _178
REMARK   72  A    between atoms: _181  and  _183
REMARK   73  A    between atoms: _183  and  _184
REMARK   74  A    between atoms: _183  and  _186
REMARK   75  A    between atoms: _186  and  _187
REMARK   76  A    between atoms: _187  and  _188
REMARK   77  A    between atoms: _190  and  _192
REMARK   78  A    between atoms: _192  and  _193
REMARK   79  A    between atoms: _195  and  _197
REMARK   80  A    between atoms: _197  and  _198
REMARK   81  A    between atoms: _197  and  _200
REMARK   82  A    between atoms: _200  and  _201
REMARK   83  A    between atoms: _204  and  _206
REMARK   84  A    between atoms: _206  and  _207
REMARK   85  A    between atoms: _206  and  _209
REMARK   86  A    between atoms: _209  and  _210
REMARK   87  A    between atoms: _210  and  _211
REMARK   88  A    between atoms: _216  and  _218
REMARK   89  A    between atoms: _218  and  _219
REMARK   90  A    between atoms: _218  and  _221
REMARK   91  A    between atoms: _221  and  _222
REMARK   92  A    between atoms: _222  and  _223
REMARK   93  A    between atoms: _223  and  _224
REMARK   94  A    between atoms: _233  and  _235
REMARK   95  A    between atoms: _235  and  _236
REMARK   96  A    between atoms: _235  and  _238
REMARK   97  A    between atoms: _238  and  _239
REMARK   98  A    between atoms: _246  and  _247
REMARK   99  A    between atoms: _252  and  _254
REMARK  100  A    between atoms: _254  and  _255
REMARK  101  A    between atoms: _254  and  _257
REMARK  102  A    between atoms: _257  and  _258
REMARK  103  A    between atoms: _263  and  _264
REMARK  104  A    between atoms: _266  and  _268
REMARK  105  A    between atoms: _268  and  _269
REMARK  106  A    between atoms: _268  and  _271
REMARK  107  A    between atoms: _271  and  _272
REMARK  108  A    between atoms: _275  and  _277
REMARK  109  A    between atoms: _277  and  _278
REMARK  110  A    between atoms: _277  and  _280
REMARK  111  A    between atoms: _280  and  _281
REMARK  112  A    between atoms: _284  and  _286
REMARK  113  A    between atoms: _286  and  _287
REMARK  114  A    between atoms: _286  and  _289
REMARK  115  A    between atoms: _289  and  _290
REMARK  116  A    between atoms: _294  and  _295
REMARK  117  A    between atoms: _300  and  _302
REMARK  118  A    between atoms: _302  and  _303
REMARK  119  A    between atoms: _302  and  _305
REMARK  120  A    between atoms: _305  and  _306
REMARK  121  A    between atoms: _306  and  _307
REMARK  122  A    between atoms: _309  and  _311
REMARK  123  A    between atoms: _311  and  _312
REMARK  124  A    between atoms: _311  and  _314
REMARK  125  A    between atoms: _314  and  _315
REMARK  126  A    between atoms: _318  and  _320
REMARK  127  A    between atoms: _320  and  _321
REMARK  128  A    between atoms: _320  and  _323
REMARK  129  A    between atoms: _323  and  _324
REMARK  130  A    between atoms: _324  and  _325
REMARK  131  A    between atoms: _330  and  _332
REMARK  132  A    between atoms: _332  and  _333
REMARK  133  A    between atoms: _336  and  _338
REMARK  134  A    between atoms: _338  and  _339
REMARK  135  A    between atoms: _341  and  _343
REMARK  136  A    between atoms: _343  and  _344
REMARK  137  A    between atoms: _343  and  _346
REMARK  138  A    between atoms: _346  and  _347
REMARK  139  A    between atoms: _350  and  _352
REMARK  140  A    between atoms: _352  and  _353
REMARK  141  A    between atoms: _352  and  _355
REMARK  142  A    between atoms: _355  and  _356
REMARK  143  A    between atoms: _358  and  _360
REMARK  144  A    between atoms: _360  and  _361
REMARK  145  A    between atoms: _360  and  _363
REMARK  146  A    between atoms: _363  and  _364
REMARK  147  A    between atoms: _369  and  _371
REMARK  148  A    between atoms: _371  and  _372
REMARK  149  A    between atoms: _371  and  _374
REMARK  150  A    between atoms: _374  and  _375
REMARK  151  A    between atoms: _375  and  _376
REMARK  152  A    between atoms: _379  and  _381
REMARK  153  A    between atoms: _381  and  _382
REMARK  154  A    between atoms: _385  and  _387
REMARK  155  A    between atoms: _387  and  _388
REMARK  156  A    between atoms: _387  and  _390
REMARK  157  A    between atoms: _390  and  _391
REMARK  158  A    between atoms: _397  and  _399
REMARK  159  A    between atoms: _399  and  _400
REMARK  160  A    between atoms: _399  and  _402
REMARK  161  A    between atoms: _402  and  _403
REMARK  162  A    between atoms: _406  and  _408
REMARK  163  A    between atoms: _408  and  _409
REMARK  164  A    between atoms: _408  and  _411
REMARK  165  A    between atoms: _411  and  _412
REMARK  166  A    between atoms: _415  and  _417
REMARK  167  A    between atoms: _417  and  _418
REMARK  168  A    between atoms: _417  and  _420
REMARK  169  A    between atoms: _420  and  _421
REMARK  170  A    between atoms: _424  and  _426
REMARK  171  A    between atoms: _426  and  _427
REMARK  172  A    between atoms: _426  and  _429
REMARK  173  A    between atoms: _429  and  _430
REMARK  174  A    between atoms: _433  and  _435
REMARK  175  A    between atoms: _435  and  _436
REMARK  176  A    between atoms: _435  and  _438
REMARK  177  A    between atoms: _438  and  _439
REMARK  178  A    between atoms: _442  and  _444
REMARK  179  A    between atoms: _444  and  _445
REMARK  180  A    between atoms: _448  and  _450
REMARK  181  A    between atoms: _450  and  _451
REMARK  182  A    between atoms: _450  and  _453
REMARK  183  A    between atoms: _453  and  _454
REMARK  184  A    between atoms: _456  and  _458
REMARK  185  A    between atoms: _458  and  _459
REMARK  186  A    between atoms: _458  and  _461
REMARK  187  A    between atoms: _464  and  _466
REMARK  188  A    between atoms: _466  and  _467
REMARK  189  A    between atoms: _466  and  _469
REMARK  190  A    between atoms: _469  and  _470
REMARK  191  A    between atoms: _472  and  _474
REMARK  192  A    between atoms: _474  and  _475
REMARK  193  A    between atoms: _474  and  _477
REMARK  194  A    between atoms: _477  and  _478
REMARK  195  A    between atoms: _484  and  _486
REMARK  196  A    between atoms: _486  and  _487
REMARK  197  A    between atoms: _486  and  _489
REMARK  198  A    between atoms: _489  and  _490
REMARK  199  A    between atoms: _493  and  _495
REMARK  200  A    between atoms: _495  and  _496
REMARK  201  A    between atoms: _498  and  _500
REMARK  202  A    between atoms: _500  and  _501
REMARK  203  A    between atoms: _500  and  _503
REMARK  204  A    between atoms: _503  and  _504
REMARK  205  A    between atoms: _507  and  _509
REMARK  206  A    between atoms: _509  and  _510
REMARK  207  A    between atoms: _509  and  _512
REMARK  208  A    between atoms: _512  and  _513
REMARK  209  A    between atoms: _519  and  _521
REMARK  210  A    between atoms: _521  and  _522
REMARK  211  A    between atoms: _524  and  _526
REMARK  212  A    between atoms: _526  and  _527
REMARK  213  A    between atoms: _526  and  _529
REMARK  214  A    between atoms: _529  and  _530
REMARK  215  A    between atoms: _530  and  _531
REMARK  216  A    between atoms: _531  and  _532
REMARK  217  A    between atoms: _532  and  _533
REMARK  218  A    between atoms: _537  and  _539
REMARK  219  A    between atoms: _539  and  _540
REMARK  220  A    between atoms: _542  and  _544
REMARK  221  A    between atoms: _544  and  _545
REMARK  222  A    between atoms: _544  and  _547
REMARK  223  A    between atoms: _550  and  _552
REMARK  224  A    between atoms: _552  and  _553
REMARK  225  A    between atoms: _555  and  _557
REMARK  226  A    between atoms: _557  and  _558
REMARK  227  A    between atoms: _557  and  _560
REMARK  228  A    between atoms: _560  and  _561
REMARK                            x       y       z     vdW  Elec       q    Type
REMARK                         _______ _______ _______ _____ _____    ______ ____
ROOT
ATOM      1  O   HOH     1      19.954 -14.833  -2.738  0.00  0.00    +0.000 OA
ENDROOT
TORSDOF 0
REMARK  Name = ../refined-set-2016/4pox/4pox_pocket.pdb
REMARK  228 active torsions:
REMARK  status: ('A' for Active; 'I' for Inactive)
REMARK    1  A    between atoms: _1  and  _3
REMARK    2  A    between atoms: _3  and  _4
REMARK    3  A    between atoms: _3  and  _6
REMARK    4  A    between atoms: _6  and  _7
REMARK    5  A    between atoms: _10  and  _12
REMARK    6  A    between atoms: _12  and  _13
REMARK    7  A    between atoms: _12  and  _15
REMARK    8  A    between atoms: _15  and  _16
REMARK    9  A    between atoms: _16  and  _17
REMARK   10  A    between atoms: _20  and  _22
REMARK   11  A    between atoms: _22  and  _23
REMARK   12  A    between atoms: _25  and  _27
REMARK   13  A    between atoms: _27  and  _28
REMARK   14  A    between atoms: _27  and  _30
REMARK   15  A    between atoms: _30  and  _31
REMARK   16  A    between atoms: _33  and  _35
REMARK   17  A    between atoms: _35  and  _36
REMARK   18  A    between atoms: _35  and  _38
REMARK   19  A    between atoms: _38  and  _39
REMARK   20  A    between atoms: _44  and  _45
REMARK   21  A    between atoms: _47  and  _49
REMARK   22  A    between atoms: _49  and  _50
REMARK   23  A    between atoms: _53  and  _55
REMARK   24  A    between atoms: _55  and  _56
REMARK   25  A    between atoms: _55  and  _58
REMARK   26  A    between atoms: _58  and  _59
REMARK   27  A    between atoms: _64  and  _65
REMARK   28  A    between atoms: _67  and  _69
REMARK   29  A    between atoms: _69  and  _70
REMARK   30  A    between atoms: _69  and  _72
REMARK   31  A    between atoms: _72  and  _73
REMARK   32  A    between atoms: _78  and  _80
REMARK   33  A    between atoms: _80  and  _81
REMARK   34  A    between atoms: _80  and  _83
REMARK   35  A    between atoms: _83  and  _84
REMARK   36  A    between atoms: _90  and  _92
REMARK   37  A    between atoms: _92  and  _93
REMARK   38  A    between atoms: _92  and  _95
REMARK   39  A    between atoms: _95  and  _96
REMARK   40  A    between atoms: _99  and  _101
REMARK   41  A    between atoms: _101  and  _102
REMARK   42  A    between atoms: _101  and  _104
REMARK   43  A    between atoms: _104  and  _105
REMARK   44  A    between atoms: _105  and  _106
REMARK   45  A    between atoms: _111  and  _113
REMARK   46  A    between atoms: _113  and  _114
REMARK   47  A    between atoms: _117  and  _119
REMARK   48  A    between atoms: _119  and  _120
REMARK   49  A    between atoms: _119  and  _122
REMARK   50  A    between atoms: _122  and  _123
REMARK   51  A    between atoms: _133  and  _135
REMARK   52  A    between atoms: _135  and  _136
REMARK   53  A    between atoms: _135  and  _138
REMARK   54  A    between atoms: _138  and  _139
REMARK   55  A    between atoms: _142  and  _144
REMARK   56  A    between atoms: _144  and  _145
REMARK   57  A    between atoms: _144  and  _147
REMARK   58  A    between atoms: _147  and  _148
REMARK   59  A    between atoms: _151  and  _153
REMARK   60  A    between atoms: _153  and  _154
REMARK   61  A    between atoms: _153  and  _156
REMARK   62  A    between atoms: _156  and  _157
REMARK   63  A    between atoms: _160  and  _162
REMARK   64  A    between atoms: _162  and  _163
REMARK   65  A    between atoms: _162  and  _165
REMARK   66  A    between atoms: _165  and  _166
REMARK   67  A    between atoms: _166  and  _167
REMARK   68  A    between atoms: _169  and  _171
REMARK   69  A    between atoms: _171  and  _172
REMARK   70  A    between atoms: _175  and  _177
REMARK   71  A    between atoms: _177  and  _178
REMARK   72  A    between atoms: _181  and  _183
REMARK   73  A    between atoms: _183  and  _184
REMARK   74  A    between atoms: _183  and  _186
REMARK   75  A    between atoms: _186  and  _187
REMARK   76  A    between atoms: _187  and  _188
REMARK   77  A    between atoms: _190  and  _192
REMARK   78  A    between atoms: _192  and  _193
REMARK   79  A    between atoms: _195  and  _197
REMARK   80  A    between atoms: _197  and  _198
REMARK   81  A    between atoms: _197  and  _200
REMARK   82  A    between atoms: _200  and  _201
REMARK   83  A    between atoms: _204  and  _206
REMARK   84  A    between atoms: _206  and  _207
REMARK   85  A    between atoms: _206  and  _209
REMARK   86  A    between atoms: _209  and  _210
REMARK   87  A    between atoms: _210  and  _211
REMARK   88  A    between atoms: _216  and  _218
REMARK   89  A    between atoms: _218  and  _219
REMARK   90  A    between atoms: _218  and  _221
REMARK   91  A    between atoms: _221  and  _222
REMARK   92  A    between atoms: _222  and  _223
REMARK   93  A    between atoms: _223  and  _224
REMARK   94  A    between atoms: _233  and  _235
REMARK   95  A    between atoms: _235  and  _236
REMARK   96  A    between atoms: _235  and  _238
REMARK   97  A    between atoms: _238  and  _239
REMARK   98  A    between atoms: _246  and  _247
REMARK   99  A    between atoms: _252  and  _254
REMARK  100  A    between atoms: _254  and  _255
REMARK  101  A    between atoms: _254  and  _257
REMARK  102  A    between atoms: _257  and  _258
REMARK  103  A    between atoms: _263  and  _264
REMARK  104  A    between atoms: _266  and  _268
REMARK  105  A    between atoms: _268  and  _269
REMARK  106  A    between atoms: _268  and  _271
REMARK  107  A    between atoms: _271  and  _272
REMARK  108  A    between atoms: _275  and  _277
REMARK  109  A    between atoms: _277  and  _278
REMARK  110  A    between atoms: _277  and  _280
REMARK  111  A    between atoms: _280  and  _281
REMARK  112  A    between atoms: _284  and  _286
REMARK  113  A    between atoms: _286  and  _287
REMARK  114  A    between atoms: _286  and  _289
REMARK  115  A    between atoms: _289  and  _290
REMARK  116  A    between atoms: _294  and  _295
REMARK  117  A    between atoms: _300  and  _302
REMARK  118  A    between atoms: _302  and  _303
REMARK  119  A    between atoms: _302  and  _305
REMARK  120  A    between atoms: _305  and  _306
REMARK  121  A    between atoms: _306  and  _307
REMARK  122  A    between atoms: _309  and  _311
REMARK  123  A    between atoms: _311  and  _312
REMARK  124  A    between atoms: _311  and  _314
REMARK  125  A    between atoms: _314  and  _315
REMARK  126  A    between atoms: _318  and  _320
REMARK  127  A    between atoms: _320  and  _321
REMARK  128  A    between atoms: _320  and  _323
REMARK  129  A    between atoms: _323  and  _324
REMARK  130  A    between atoms: _324  and  _325
REMARK  131  A    between atoms: _330  and  _332
REMARK  132  A    between atoms: _332  and  _333
REMARK  133  A    between atoms: _336  and  _338
REMARK  134  A    between atoms: _338  and  _339
REMARK  135  A    between atoms: _341  and  _343
REMARK  136  A    between atoms: _343  and  _344
REMARK  137  A    between atoms: _343  and  _346
REMARK  138  A    between atoms: _346  and  _347
REMARK  139  A    between atoms: _350  and  _352
REMARK  140  A    between atoms: _352  and  _353
REMARK  141  A    between atoms: _352  and  _355
REMARK  142  A    between atoms: _355  and  _356
REMARK  143  A    between atoms: _358  and  _360
REMARK  144  A    between atoms: _360  and  _361
REMARK  145  A    between atoms: _360  and  _363
REMARK  146  A    between atoms: _363  and  _364
REMARK  147  A    between atoms: _369  and  _371
REMARK  148  A    between atoms: _371  and  _372
REMARK  149  A    between atoms: _371  and  _374
REMARK  150  A    between atoms: _374  and  _375
REMARK  151  A    between atoms: _375  and  _376
REMARK  152  A    between atoms: _379  and  _381
REMARK  153  A    between atoms: _381  and  _382
REMARK  154  A    between atoms: _385  and  _387
REMARK  155  A    between atoms: _387  and  _388
REMARK  156  A    between atoms: _387  and  _390
REMARK  157  A    between atoms: _390  and  _391
REMARK  158  A    between atoms: _397  and  _399
REMARK  159  A    between atoms: _399  and  _400
REMARK  160  A    between atoms: _399  and  _402
REMARK  161  A    between atoms: _402  and  _403
REMARK  162  A    between atoms: _406  and  _408
REMARK  163  A    between atoms: _408  and  _409
REMARK  164  A    between atoms: _408  and  _411
REMARK  165  A    between atoms: _411  and  _412
REMARK  166  A    between atoms: _415  and  _417
REMARK  167  A    between atoms: _417  and  _418
REMARK  168  A    between atoms: _417  and  _420
REMARK  169  A    between atoms: _420  and  _421
REMARK  170  A    between atoms: _424  and  _426
REMARK  171  A    between atoms: _426  and  _427
REMARK  172  A    between atoms: _426  and  _429
REMARK  173  A    between atoms: _429  and  _430
REMARK  174  A    between atoms: _433  and  _435
REMARK  175  A    between atoms: _435  and  _436
REMARK  176  A    between atoms: _435  and  _438
REMARK  177  A    between atoms: _438  and  _439
REMARK  178  A    between atoms: _442  and  _444
REMARK  179  A    between atoms: _444  and  _445
REMARK  180  A    between atoms: _448  and  _450
REMARK  181  A    between atoms: _450  and  _451
REMARK  182  A    between atoms: _450  and  _453
REMARK  183  A    between atoms: _453  and  _454
REMARK  184  A    between atoms: _456  and  _458
REMARK  185  A    between atoms: _458  and  _459
REMARK  186  A    between atoms: _458  and  _461
REMARK  187  A    between atoms: _464  and  _466
REMARK  188  A    between atoms: _466  and  _467
REMARK  189  A    between atoms: _466  and  _469
REMARK  190  A    between atoms: _469  and  _470
REMARK  191  A    between atoms: _472  and  _474
REMARK  192  A    between atoms: _474  and  _475
REMARK  193  A    between atoms: _474  and  _477
REMARK  194  A    between atoms: _477  and  _478
REMARK  195  A    between atoms: _484  and  _486
REMARK  196  A    between atoms: _486  and  _487
REMARK  197  A    between atoms: _486  and  _489
REMARK  198  A    between atoms: _489  and  _490
REMARK  199  A    between atoms: _493  and  _495
REMARK  200  A    between atoms: _495  and  _496
REMARK  201  A    between atoms: _498  and  _500
REMARK  202  A    between atoms: _500  and  _501
REMARK  203  A    between atoms: _500  and  _503
REMARK  204  A    between atoms: _503  and  _504
REMARK  205  A    between atoms: _507  and  _509
REMARK  206  A    between atoms: _509  and  _510
REMARK  207  A    between atoms: _509  and  _512
REMARK  208  A    between atoms: _512  and  _513
REMARK  209  A    between atoms: _519  and  _521
REMARK  210  A    between atoms: _521  and  _522
REMARK  211  A    between atoms: _524  and  _526
REMARK  212  A    between atoms: _526  and  _527
REMARK  213  A    between atoms: _526  and  _529
REMARK  214  A    between atoms: _529  and  _530
REMARK  215  A    between atoms: _530  and  _531
REMARK  216  A    between atoms: _531  and  _532
REMARK  217  A    between atoms: _532  and  _533
REMARK  218  A    between atoms: _537  and  _539
REMARK  219  A    between atoms: _539  and  _540
REMARK  220  A    between atoms: _542  and  _544
REMARK  221  A    between atoms: _544  and  _545
REMARK  222  A    between atoms: _544  and  _547
REMARK  223  A    between atoms: _550  and  _552
REMARK  224  A    between atoms: _552  and  _553
REMARK  225  A    between atoms: _555  and  _557
REMARK  226  A    between atoms: _557  and  _558
REMARK  227  A    between atoms: _557  and  _560
REMARK  228  A    between atoms: _560  and  _561
REMARK                            x       y       z     vdW  Elec       q    Type
REMARK                         _______ _______ _______ _____ _____    ______ ____
ROOT
ATOM      1  O   HOH     1      15.961  -6.869   7.224  0.00  0.00    +0.000 OA
ENDROOT
TORSDOF 0
REMARK  Name = ../refined-set-2016/4pox/4pox_pocket.pdb
REMARK  228 active torsions:
REMARK  status: ('A' for Active; 'I' for Inactive)
REMARK    1  A    between atoms: _1  and  _3
REMARK    2  A    between atoms: _3  and  _4
REMARK    3  A    between atoms: _3  and  _6
REMARK    4  A    between atoms: _6  and  _7
REMARK    5  A    between atoms: _10  and  _12
REMARK    6  A    between atoms: _12  and  _13
REMARK    7  A    between atoms: _12  and  _15
REMARK    8  A    between atoms: _15  and  _16
REMARK    9  A    between atoms: _16  and  _17
REMARK   10  A    between atoms: _20  and  _22
REMARK   11  A    between atoms: _22  and  _23
REMARK   12  A    between atoms: _25  and  _27
REMARK   13  A    between atoms: _27  and  _28
REMARK   14  A    between atoms: _27  and  _30
REMARK   15  A    between atoms: _30  and  _31
REMARK   16  A    between atoms: _33  and  _35
REMARK   17  A    between atoms: _35  and  _36
REMARK   18  A    between atoms: _35  and  _38
REMARK   19  A    between atoms: _38  and  _39
REMARK   20  A    between atoms: _44  and  _45
REMARK   21  A    between atoms: _47  and  _49
REMARK   22  A    between atoms: _49  and  _50
REMARK   23  A    between atoms: _53  and  _55
REMARK   24  A    between atoms: _55  and  _56
REMARK   25  A    between atoms: _55  and  _58
REMARK   26  A    between atoms: _58  and  _59
REMARK   27  A    between atoms: _64  and  _65
REMARK   28  A    between atoms: _67  and  _69
REMARK   29  A    between atoms: _69  and  _70
REMARK   30  A    between atoms: _69  and  _72
REMARK   31  A    between atoms: _72  and  _73
REMARK   32  A    between atoms: _78  and  _80
REMARK   33  A    between atoms: _80  and  _81
REMARK   34  A    between atoms: _80  and  _83
REMARK   35  A    between atoms: _83  and  _84
REMARK   36  A    between atoms: _90  and  _92
REMARK   37  A    between atoms: _92  and  _93
REMARK   38  A    between atoms: _92  and  _95
REMARK   39  A    between atoms: _95  and  _96
REMARK   40  A    between atoms: _99  and  _101
REMARK   41  A    between atoms: _101  and  _102
REMARK   42  A    between atoms: _101  and  _104
REMARK   43  A    between atoms: _104  and  _105
REMARK   44  A    between atoms: _105  and  _106
REMARK   45  A    between atoms: _111  and  _113
REMARK   46  A    between atoms: _113  and  _114
REMARK   47  A    between atoms: _117  and  _119
REMARK   48  A    between atoms: _119  and  _120
REMARK   49  A    between atoms: _119  and  _122
REMARK   50  A    between atoms: _122  and  _123
REMARK   51  A    between atoms: _133  and  _135
REMARK   52  A    between atoms: _135  and  _136
REMARK   53  A    between atoms: _135  and  _138
REMARK   54  A    between atoms: _138  and  _139
REMARK   55  A    between atoms: _142  and  _144
REMARK   56  A    between atoms: _144  and  _145
REMARK   57  A    between atoms: _144  and  _147
REMARK   58  A    between atoms: _147  and  _148
REMARK   59  A    between atoms: _151  and  _153
REMARK   60  A    between atoms: _153  and  _154
REMARK   61  A    between atoms: _153  and  _156
REMARK   62  A    between atoms: _156  and  _157
REMARK   63  A    between atoms: _160  and  _162
REMARK   64  A    between atoms: _162  and  _163
REMARK   65  A    between atoms: _162  and  _165
REMARK   66  A    between atoms: _165  and  _166
REMARK   67  A    between atoms: _166  and  _167
REMARK   68  A    between atoms: _169  and  _171
REMARK   69  A    between atoms: _171  and  _172
REMARK   70  A    between atoms: _175  and  _177
REMARK   71  A    between atoms: _177  and  _178
REMARK   72  A    between atoms: _181  and  _183
REMARK   73  A    between atoms: _183  and  _184
REMARK   74  A    between atoms: _183  and  _186
REMARK   75  A    between atoms: _186  and  _187
REMARK   76  A    between atoms: _187  and  _188
REMARK   77  A    between atoms: _190  and  _192
REMARK   78  A    between atoms: _192  and  _193
REMARK   79  A    between atoms: _195  and  _197
REMARK   80  A    between atoms: _197  and  _198
REMARK   81  A    between atoms: _197  and  _200
REMARK   82  A    between atoms: _200  and  _201
REMARK   83  A    between atoms: _204  and  _206
REMARK   84  A    between atoms: _206  and  _207
REMARK   85  A    between atoms: _206  and  _209
REMARK   86  A    between atoms: _209  and  _210
REMARK   87  A    between atoms: _210  and  _211
REMARK   88  A    between atoms: _216  and  _218
REMARK   89  A    between atoms: _218  and  _219
REMARK   90  A    between atoms: _218  and  _221
REMARK   91  A    between atoms: _221  and  _222
REMARK   92  A    between atoms: _222  and  _223
REMARK   93  A    between atoms: _223  and  _224
REMARK   94  A    between atoms: _233  and  _235
REMARK   95  A    between atoms: _235  and  _236
REMARK   96  A    between atoms: _235  and  _238
REMARK   97  A    between atoms: _238  and  _239
REMARK   98  A    between atoms: _246  and  _247
REMARK   99  A    between atoms: _252  and  _254
REMARK  100  A    between atoms: _254  and  _255
REMARK  101  A    between atoms: _254  and  _257
REMARK  102  A    between atoms: _257  and  _258
REMARK  103  A    between atoms: _263  and  _264
REMARK  104  A    between atoms: _266  and  _268
REMARK  105  A    between atoms: _268  and  _269
REMARK  106  A    between atoms: _268  and  _271
REMARK  107  A    between atoms: _271  and  _272
REMARK  108  A    between atoms: _275  and  _277
REMARK  109  A    between atoms: _277  and  _278
REMARK  110  A    between atoms: _277  and  _280
REMARK  111  A    between atoms: _280  and  _281
REMARK  112  A    between atoms: _284  and  _286
REMARK  113  A    between atoms: _286  and  _287
REMARK  114  A    between atoms: _286  and  _289
REMARK  115  A    between atoms: _289  and  _290
REMARK  116  A    between atoms: _294  and  _295
REMARK  117  A    between atoms: _300  and  _302
REMARK  118  A    between atoms: _302  and  _303
REMARK  119  A    between atoms: _302  and  _305
REMARK  120  A    between atoms: _305  and  _306
REMARK  121  A    between atoms: _306  and  _307
REMARK  122  A    between atoms: _309  and  _311
REMARK  123  A    between atoms: _311  and  _312
REMARK  124  A    between atoms: _311  and  _314
REMARK  125  A    between atoms: _314  and  _315
REMARK  126  A    between atoms: _318  and  _320
REMARK  127  A    between atoms: _320  and  _321
REMARK  128  A    between atoms: _320  and  _323
REMARK  129  A    between atoms: _323  and  _324
REMARK  130  A    between atoms: _324  and  _325
REMARK  131  A    between atoms: _330  and  _332
REMARK  132  A    between atoms: _332  and  _333
REMARK  133  A    between atoms: _336  and  _338
REMARK  134  A    between atoms: _338  and  _339
REMARK  135  A    between atoms: _341  and  _343
REMARK  136  A    between atoms: _343  and  _344
REMARK  137  A    between atoms: _343  and  _346
REMARK  138  A    between atoms: _346  and  _347
REMARK  139  A    between atoms: _350  and  _352
REMARK  140  A    between atoms: _352  and  _353
REMARK  141  A    between atoms: _352  and  _355
REMARK  142  A    between atoms: _355  and  _356
REMARK  143  A    between atoms: _358  and  _360
REMARK  144  A    between atoms: _360  and  _361
REMARK  145  A    between atoms: _360  and  _363
REMARK  146  A    between atoms: _363  and  _364
REMARK  147  A    between atoms: _369  and  _371
REMARK  148  A    between atoms: _371  and  _372
REMARK  149  A    between atoms: _371  and  _374
REMARK  150  A    between atoms: _374  and  _375
REMARK  151  A    between atoms: _375  and  _376
REMARK  152  A    between atoms: _379  and  _381
REMARK  153  A    between atoms: _381  and  _382
REMARK  154  A    between atoms: _385  and  _387
REMARK  155  A    between atoms: _387  and  _388
REMARK  156  A    between atoms: _387  and  _390
REMARK  157  A    between atoms: _390  and  _391
REMARK  158  A    between atoms: _397  and  _399
REMARK  159  A    between atoms: _399  and  _400
REMARK  160  A    between atoms: _399  and  _402
REMARK  161  A    between atoms: _402  and  _403
REMARK  162  A    between atoms: _406  and  _408
REMARK  163  A    between atoms: _408  and  _409
REMARK  164  A    between atoms: _408  and  _411
REMARK  165  A    between atoms: _411  and  _412
REMARK  166  A    between atoms: _415  and  _417
REMARK  167  A    between atoms: _417  and  _418
REMARK  168  A    between atoms: _417  and  _420
REMARK  169  A    between atoms: _420  and  _421
REMARK  170  A    between atoms: _424  and  _426
REMARK  171  A    between atoms: _426  and  _427
REMARK  172  A    between atoms: _426  and  _429
REMARK  173  A    between atoms: _429  and  _430
REMARK  174  A    between atoms: _433  and  _435
REMARK  175  A    between atoms: _435  and  _436
REMARK  176  A    between atoms: _435  and  _438
REMARK  177  A    between atoms: _438  and  _439
REMARK  178  A    between atoms: _442  and  _444
REMARK  179  A    between atoms: _444  and  _445
REMARK  180  A    between atoms: _448  and  _450
REMARK  181  A    between atoms: _450  and  _451
REMARK  182  A    between atoms: _450  and  _453
REMARK  183  A    between atoms: _453  and  _454
REMARK  184  A    between atoms: _456  and  _458
REMARK  185  A    between atoms: _458  and  _459
REMARK  186  A    between atoms: _458  and  _461
REMARK  187  A    between atoms: _464  and  _466
REMARK  188  A    between atoms: _466  and  _467
REMARK  189  A    between atoms: _466  and  _469
REMARK  190  A    between atoms: _469  and  _470
REMARK  191  A    between atoms: _472  and  _474
REMARK  192  A    between atoms: _474  and  _475
REMARK  193  A    between atoms: _474  and  _477
REMARK  194  A    between atoms: _477  and  _478
REMARK  195  A    between atoms: _484  and  _486
REMARK  196  A    between atoms: _486  and  _487
REMARK  197  A    between atoms: _486  and  _489
REMARK  198  A    between atoms: _489  and  _490
REMARK  199  A    between atoms: _493  and  _495
REMARK  200  A    between atoms: _495  and  _496
REMARK  201  A    between atoms: _498  and  _500
REMARK  202  A    between atoms: _500  and  _501
REMARK  203  A    between atoms: _500  and  _503
REMARK  204  A    between atoms: _503  and  _504
REMARK  205  A    between atoms: _507  and  _509
REMARK  206  A    between atoms: _509  and  _510
REMARK  207  A    between atoms: _509  and  _512
REMARK  208  A    between atoms: _512  and  _513
REMARK  209  A    between atoms: _519  and  _521
REMARK  210  A    between atoms: _521  and  _522
REMARK  211  A    between atoms: _524  and  _526
REMARK  212  A    between atoms: _526  and  _527
REMARK  213  A    between atoms: _526  and  _529
REMARK  214  A    between atoms: _529  and  _530
REMARK  215  A    between atoms: _530  and  _531
REMARK  216  A    between atoms: _531  and  _532
REMARK  217  A    between atoms: _532  and  _533
REMARK  218  A    between atoms: _537  and  _539
REMARK  219  A    between atoms: _539  and  _540
REMARK  220  A    between atoms: _542  and  _544
REMARK  221  A    between atoms: _544  and  _545
REMARK  222  A    between atoms: _544  and  _547
REMARK  223  A    between atoms: _550  and  _552
REMARK  224  A    between atoms: _552  and  _553
REMARK  225  A    between atoms: _555  and  _557
REMARK  226  A    between atoms: _557  and  _558
REMARK  227  A    between atoms: _557  and  _560
REMARK  228  A    between atoms: _560  and  _561
REMARK                            x       y       z     vdW  Elec       q    Type
REMARK                         _______ _______ _______ _____ _____    ______ ____
ROOT
ATOM      1  O   HOH     1      18.041  -8.121   9.194  0.00  0.00    +0.000 OA
ENDROOT
TORSDOF 0
REMARK  Name = ../refined-set-2016/4pox/4pox_pocket.pdb
REMARK  228 active torsions:
REMARK  status: ('A' for Active; 'I' for Inactive)
REMARK    1  A    between atoms: _1  and  _3
REMARK    2  A    between atoms: _3  and  _4
REMARK    3  A    between atoms: _3  and  _6
REMARK    4  A    between atoms: _6  and  _7
REMARK    5  A    between atoms: _10  and  _12
REMARK    6  A    between atoms: _12  and  _13
REMARK    7  A    between atoms: _12  and  _15
REMARK    8  A    between atoms: _15  and  _16
REMARK    9  A    between atoms: _16  and  _17
REMARK   10  A    between atoms: _20  and  _22
REMARK   11  A    between atoms: _22  and  _23
REMARK   12  A    between atoms: _25  and  _27
REMARK   13  A    between atoms: _27  and  _28
REMARK   14  A    between atoms: _27  and  _30
REMARK   15  A    between atoms: _30  and  _31
REMARK   16  A    between atoms: _33  and  _35
REMARK   17  A    between atoms: _35  and  _36
REMARK   18  A    between atoms: _35  and  _38
REMARK   19  A    between atoms: _38  and  _39
REMARK   20  A    between atoms: _44  and  _45
REMARK   21  A    between atoms: _47  and  _49
REMARK   22  A    between atoms: _49  and  _50
REMARK   23  A    between atoms: _53  and  _55
REMARK   24  A    between atoms: _55  and  _56
REMARK   25  A    between atoms: _55  and  _58
REMARK   26  A    between atoms: _58  and  _59
REMARK   27  A    between atoms: _64  and  _65
REMARK   28  A    between atoms: _67  and  _69
REMARK   29  A    between atoms: _69  and  _70
REMARK   30  A    between atoms: _69  and  _72
REMARK   31  A    between atoms: _72  and  _73
REMARK   32  A    between atoms: _78  and  _80
REMARK   33  A    between atoms: _80  and  _81
REMARK   34  A    between atoms: _80  and  _83
REMARK   35  A    between atoms: _83  and  _84
REMARK   36  A    between atoms: _90  and  _92
REMARK   37  A    between atoms: _92  and  _93
REMARK   38  A    between atoms: _92  and  _95
REMARK   39  A    between atoms: _95  and  _96
REMARK   40  A    between atoms: _99  and  _101
REMARK   41  A    between atoms: _101  and  _102
REMARK   42  A    between atoms: _101  and  _104
REMARK   43  A    between atoms: _104  and  _105
REMARK   44  A    between atoms: _105  and  _106
REMARK   45  A    between atoms: _111  and  _113
REMARK   46  A    between atoms: _113  and  _114
REMARK   47  A    between atoms: _117  and  _119
REMARK   48  A    between atoms: _119  and  _120
REMARK   49  A    between atoms: _119  and  _122
REMARK   50  A    between atoms: _122  and  _123
REMARK   51  A    between atoms: _133  and  _135
REMARK   52  A    between atoms: _135  and  _136
REMARK   53  A    between atoms: _135  and  _138
REMARK   54  A    between atoms: _138  and  _139
REMARK   55  A    between atoms: _142  and  _144
REMARK   56  A    between atoms: _144  and  _145
REMARK   57  A    between atoms: _144  and  _147
REMARK   58  A    between atoms: _147  and  _148
REMARK   59  A    between atoms: _151  and  _153
REMARK   60  A    between atoms: _153  and  _154
REMARK   61  A    between atoms: _153  and  _156
REMARK   62  A    between atoms: _156  and  _157
REMARK   63  A    between atoms: _160  and  _162
REMARK   64  A    between atoms: _162  and  _163
REMARK   65  A    between atoms: _162  and  _165
REMARK   66  A    between atoms: _165  and  _166
REMARK   67  A    between atoms: _166  and  _167
REMARK   68  A    between atoms: _169  and  _171
REMARK   69  A    between atoms: _171  and  _172
REMARK   70  A    between atoms: _175  and  _177
REMARK   71  A    between atoms: _177  and  _178
REMARK   72  A    between atoms: _181  and  _183
REMARK   73  A    between atoms: _183  and  _184
REMARK   74  A    between atoms: _183  and  _186
REMARK   75  A    between atoms: _186  and  _187
REMARK   76  A    between atoms: _187  and  _188
REMARK   77  A    between atoms: _190  and  _192
REMARK   78  A    between atoms: _192  and  _193
REMARK   79  A    between atoms: _195  and  _197
REMARK   80  A    between atoms: _197  and  _198
REMARK   81  A    between atoms: _197  and  _200
REMARK   82  A    between atoms: _200  and  _201
REMARK   83  A    between atoms: _204  and  _206
REMARK   84  A    between atoms: _206  and  _207
REMARK   85  A    between atoms: _206  and  _209
REMARK   86  A    between atoms: _209  and  _210
REMARK   87  A    between atoms: _210  and  _211
REMARK   88  A    between atoms: _216  and  _218
REMARK   89  A    between atoms: _218  and  _219
REMARK   90  A    between atoms: _218  and  _221
REMARK   91  A    between atoms: _221  and  _222
REMARK   92  A    between atoms: _222  and  _223
REMARK   93  A    between atoms: _223  and  _224
REMARK   94  A    between atoms: _233  and  _235
REMARK   95  A    between atoms: _235  and  _236
REMARK   96  A    between atoms: _235  and  _238
REMARK   97  A    between atoms: _238  and  _239
REMARK   98  A    between atoms: _246  and  _247
REMARK   99  A    between atoms: _252  and  _254
REMARK  100  A    between atoms: _254  and  _255
REMARK  101  A    between atoms: _254  and  _257
REMARK  102  A    between atoms: _257  and  _258
REMARK  103  A    between atoms: _263  and  _264
REMARK  104  A    between atoms: _266  and  _268
REMARK  105  A    between atoms: _268  and  _269
REMARK  106  A    between atoms: _268  and  _271
REMARK  107  A    between atoms: _271  and  _272
REMARK  108  A    between atoms: _275  and  _277
REMARK  109  A    between atoms: _277  and  _278
REMARK  110  A    between atoms: _277  and  _280
REMARK  111  A    between atoms: _280  and  _281
REMARK  112  A    between atoms: _284  and  _286
REMARK  113  A    between atoms: _286  and  _287
REMARK  114  A    between atoms: _286  and  _289
REMARK  115  A    between atoms: _289  and  _290
REMARK  116  A    between atoms: _294  and  _295
REMARK  117  A    between atoms: _300  and  _302
REMARK  118  A    between atoms: _302  and  _303
REMARK  119  A    between atoms: _302  and  _305
REMARK  120  A    between atoms: _305  and  _306
REMARK  121  A    between atoms: _306  and  _307
REMARK  122  A    between atoms: _309  and  _311
REMARK  123  A    between atoms: _311  and  _312
REMARK  124  A    between atoms: _311  and  _314
REMARK  125  A    between atoms: _314  and  _315
REMARK  126  A    between atoms: _318  and  _320
REMARK  127  A    between atoms: _320  and  _321
REMARK  128  A    between atoms: _320  and  _323
REMARK  129  A    between atoms: _323  and  _324
REMARK  130  A    between atoms: _324  and  _325
REMARK  131  A    between atoms: _330  and  _332
REMARK  132  A    between atoms: _332  and  _333
REMARK  133  A    between atoms: _336  and  _338
REMARK  134  A    between atoms: _338  and  _339
REMARK  135  A    between atoms: _341  and  _343
REMARK  136  A    between atoms: _343  and  _344
REMARK  137  A    between atoms: _343  and  _346
REMARK  138  A    between atoms: _346  and  _347
REMARK  139  A    between atoms: _350  and  _352
REMARK  140  A    between atoms: _352  and  _353
REMARK  141  A    between atoms: _352  and  _355
REMARK  142  A    between atoms: _355  and  _356
REMARK  143  A    between atoms: _358  and  _360
REMARK  144  A    between atoms: _360  and  _361
REMARK  145  A    between atoms: _360  and  _363
REMARK  146  A    between atoms: _363  and  _364
REMARK  147  A    between atoms: _369  and  _371
REMARK  148  A    between atoms: _371  and  _372
REMARK  149  A    between atoms: _371  and  _374
REMARK  150  A    between atoms: _374  and  _375
REMARK  151  A    between atoms: _375  and  _376
REMARK  152  A    between atoms: _379  and  _381
REMARK  153  A    between atoms: _381  and  _382
REMARK  154  A    between atoms: _385  and  _387
REMARK  155  A    between atoms: _387  and  _388
REMARK  156  A    between atoms: _387  and  _390
REMARK  157  A    between atoms: _390  and  _391
REMARK  158  A    between atoms: _397  and  _399
REMARK  159  A    between atoms: _399  and  _400
REMARK  160  A    between atoms: _399  and  _402
REMARK  161  A    between atoms: _402  and  _403
REMARK  162  A    between atoms: _406  and  _408
REMARK  163  A    between atoms: _408  and  _409
REMARK  164  A    between atoms: _408  and  _411
REMARK  165  A    between atoms: _411  and  _412
REMARK  166  A    between atoms: _415  and  _417
REMARK  167  A    between atoms: _417  and  _418
REMARK  168  A    between atoms: _417  and  _420
REMARK  169  A    between atoms: _420  and  _421
REMARK  170  A    between atoms: _424  and  _426
REMARK  171  A    between atoms: _426  and  _427
REMARK  172  A    between atoms: _426  and  _429
REMARK  173  A    between atoms: _429  and  _430
REMARK  174  A    between atoms: _433  and  _435
REMARK  175  A    between atoms: _435  and  _436
REMARK  176  A    between atoms: _435  and  _438
REMARK  177  A    between atoms: _438  and  _439
REMARK  178  A    between atoms: _442  and  _444
REMARK  179  A    between atoms: _444  and  _445
REMARK  180  A    between atoms: _448  and  _450
REMARK  181  A    between atoms: _450  and  _451
REMARK  182  A    between atoms: _450  and  _453
REMARK  183  A    between atoms: _453  and  _454
REMARK  184  A    between atoms: _456  and  _458
REMARK  185  A    between atoms: _458  and  _459
REMARK  186  A    between atoms: _458  and  _461
REMARK  187  A    between atoms: _464  and  _466
REMARK  188  A    between atoms: _466  and  _467
REMARK  189  A    between atoms: _466  and  _469
REMARK  190  A    between atoms: _469  and  _470
REMARK  191  A    between atoms: _472  and  _474
REMARK  192  A    between atoms: _474  and  _475
REMARK  193  A    between atoms: _474  and  _477
REMARK  194  A    between atoms: _477  and  _478
REMARK  195  A    between atoms: _484  and  _486
REMARK  196  A    between atoms: _486  and  _487
REMARK  197  A    between atoms: _486  and  _489
REMARK  198  A    between atoms: _489  and  _490
REMARK  199  A    between atoms: _493  and  _495
REMARK  200  A    between atoms: _495  and  _496
REMARK  201  A    between atoms: _498  and  _500
REMARK  202  A    between atoms: _500  and  _501
REMARK  203  A    between atoms: _500  and  _503
REMARK  204  A    between atoms: _503  and  _504
REMARK  205  A    between atoms: _507  and  _509
REMARK  206  A    between atoms: _509  and  _510
REMARK  207  A    between atoms: _509  and  _512
REMARK  208  A    between atoms: _512  and  _513
REMARK  209  A    between atoms: _519  and  _521
REMARK  210  A    between atoms: _521  and  _522
REMARK  211  A    between atoms: _524  and  _526
REMARK  212  A    between atoms: _526  and  _527
REMARK  213  A    between atoms: _526  and  _529
REMARK  214  A    between atoms: _529  and  _530
REMARK  215  A    between atoms: _530  and  _531
REMARK  216  A    between atoms: _531  and  _532
REMARK  217  A    between atoms: _532  and  _533
REMARK  218  A    between atoms: _537  and  _539
REMARK  219  A    between atoms: _539  and  _540
REMARK  220  A    between atoms: _542  and  _544
REMARK  221  A    between atoms: _544  and  _545
REMARK  222  A    between atoms: _544  and  _547
REMARK  223  A    between atoms: _550  and  _552
REMARK  224  A    between atoms: _552  and  _553
REMARK  225  A    between atoms: _555  and  _557
REMARK  226  A    between atoms: _557  and  _558
REMARK  227  A    between atoms: _557  and  _560
REMARK  228  A    between atoms: _560  and  _561
REMARK                            x       y       z     vdW  Elec       q    Type
REMARK                         _______ _______ _______ _____ _____    ______ ____
ROOT
ATOM      1  O   HOH     1      17.918  -6.060 -14.431  0.00  0.00    +0.000 OA
ENDROOT
TORSDOF 0
