REMARK  Name = ../refined-set-2016/3tay/3tay_pocket.pdb
REMARK  120 active torsions:
REMARK  status: ('A' for Active; 'I' for Inactive)
REMARK    1  A    between atoms: _1  and  _3
REMARK    2  A    between atoms: _3  and  _4
REMARK    3  A    between atoms: _3  and  _6
REMARK    4  A    between atoms: _6  and  _7
REMARK    5  A    between atoms: _10  and  _12
REMARK    6  A    between atoms: _12  and  _13
REMARK    7  A    between atoms: _12  and  _15
REMARK    8  A    between atoms: _15  and  _16
REMARK    9  A    between atoms: _16  and  _17
REMARK   10  A    between atoms: _17  and  _18
REMARK   11  A    between atoms: _27  and  _29
REMARK   12  A    between atoms: _29  and  _30
REMARK   13  A    between atoms: _29  and  _32
REMARK   14  A    between atoms: _32  and  _33
REMARK   15  A    between atoms: _43  and  _45
REMARK   16  A    between atoms: _45  and  _46
REMARK   17  A    between atoms: _45  and  _48
REMARK   18  A    between atoms: _48  and  _49
REMARK   19  A    between atoms: _52  and  _54
REMARK   20  A    between atoms: _54  and  _55
REMARK   21  A    between atoms: _54  and  _57
REMARK   22  A    between atoms: _57  and  _58
REMARK   23  A    between atoms: _61  and  _63
REMARK   24  A    between atoms: _63  and  _64
REMARK   25  A    between atoms: _63  and  _66
REMARK   26  A    between atoms: _69  and  _71
REMARK   27  A    between atoms: _71  and  _72
REMARK   28  A    between atoms: _71  and  _74
REMARK   29  A    between atoms: _74  and  _75
REMARK   30  A    between atoms: _77  and  _79
REMARK   31  A    between atoms: _79  and  _80
REMARK   32  A    between atoms: _79  and  _82
REMARK   33  A    between atoms: _82  and  _83
REMARK   34  A    between atoms: _83  and  _84
REMARK   35  A    between atoms: _84  and  _85
REMARK   36  A    between atoms: _85  and  _86
REMARK   37  A    between atoms: _90  and  _92
REMARK   38  A    between atoms: _92  and  _93
REMARK   39  A    between atoms: _92  and  _95
REMARK   40  A    between atoms: _95  and  _96
REMARK   41  A    between atoms: _99  and  _101
REMARK   42  A    between atoms: _101  and  _102
REMARK   43  A    between atoms: _101  and  _104
REMARK   44  A    between atoms: _104  and  _105
REMARK   45  A    between atoms: _108  and  _110
REMARK   46  A    between atoms: _110  and  _111
REMARK   47  A    between atoms: _110  and  _113
REMARK   48  A    between atoms: _113  and  _114
REMARK   49  A    between atoms: _114  and  _115
REMARK   50  A    between atoms: _120  and  _122
REMARK   51  A    between atoms: _122  and  _123
REMARK   52  A    between atoms: _122  and  _125
REMARK   53  A    between atoms: _125  and  _126
REMARK   54  A    between atoms: _131  and  _133
REMARK   55  A    between atoms: _133  and  _134
REMARK   56  A    between atoms: _134  and  _135
REMARK   57  A    between atoms: _134  and  _136
REMARK   58  A    between atoms: _136  and  _138
REMARK   59  A    between atoms: _138  and  _139
REMARK   60  A    between atoms: _138  and  _141
REMARK   61  A    between atoms: _141  and  _142
REMARK   62  A    between atoms: _144  and  _146
REMARK   63  A    between atoms: _146  and  _147
REMARK   64  A    between atoms: _146  and  _149
REMARK   65  A    between atoms: _149  and  _150
REMARK   66  A    between atoms: _155  and  _156
REMARK   67  A    between atoms: _158  and  _160
REMARK   68  A    between atoms: _160  and  _161
REMARK   69  A    between atoms: _163  and  _165
REMARK   70  A    between atoms: _165  and  _166
REMARK   71  A    between atoms: _165  and  _168
REMARK   72  A    between atoms: _168  and  _169
REMARK   73  A    between atoms: _169  and  _170
REMARK   74  A    between atoms: _170  and  _171
REMARK   75  A    between atoms: _180  and  _182
REMARK   76  A    between atoms: _182  and  _183
REMARK   77  A    between atoms: _182  and  _185
REMARK   78  A    between atoms: _185  and  _186
REMARK   79  A    between atoms: _189  and  _191
REMARK   80  A    between atoms: _191  and  _192
REMARK   81  A    between atoms: _191  and  _194
REMARK   82  A    between atoms: _194  and  _195
REMARK   83  A    between atoms: _200  and  _201
REMARK   84  A    between atoms: _203  and  _205
REMARK   85  A    between atoms: _205  and  _206
REMARK   86  A    between atoms: _205  and  _208
REMARK   87  A    between atoms: _208  and  _209
REMARK   88  A    between atoms: _212  and  _214
REMARK   89  A    between atoms: _214  and  _215
REMARK   90  A    between atoms: _214  and  _217
REMARK   91  A    between atoms: _217  and  _218
REMARK   92  A    between atoms: _223  and  _224
REMARK   93  A    between atoms: _226  and  _228
REMARK   94  A    between atoms: _228  and  _229
REMARK   95  A    between atoms: _228  and  _231
REMARK   96  A    between atoms: _231  and  _232
REMARK   97  A    between atoms: _237  and  _239
REMARK   98  A    between atoms: _239  and  _240
REMARK   99  A    between atoms: _239  and  _242
REMARK  100  A    between atoms: _242  and  _243
REMARK  101  A    between atoms: _246  and  _248
REMARK  102  A    between atoms: _248  and  _249
REMARK  103  A    between atoms: _251  and  _253
REMARK  104  A    between atoms: _253  and  _254
REMARK  105  A    between atoms: _253  and  _256
REMARK  106  A    between atoms: _256  and  _257
REMARK  107  A    between atoms: _262  and  _263
REMARK  108  A    between atoms: _265  and  _267
REMARK  109  A    between atoms: _267  and  _268
REMARK  110  A    between atoms: _267  and  _270
REMARK  111  A    between atoms: _270  and  _271
REMARK  112  A    between atoms: _276  and  _277
REMARK  113  A    between atoms: _279  and  _281
REMARK  114  A    between atoms: _281  and  _282
REMARK  115  A    between atoms: _281  and  _284
REMARK  116  A    between atoms: _284  and  _285
REMARK  117  A    between atoms: _287  and  _289
REMARK  118  A    between atoms: _289  and  _290
REMARK  119  A    between atoms: _289  and  _292
REMARK  120  A    between atoms: _292  and  _293
REMARK                            x       y       z     vdW  Elec       q    Type
REMARK                         _______ _______ _______ _____ _____    ______ ____
ROOT
ATOM      1  C   ARG A   2     -23.132  31.713  21.274  0.00  0.00    +0.241 C 
ATOM      2  O   ARG A   2     -23.097  30.574  21.745  0.00  0.00    -0.273 OA
ATOM      3  N   TRP A   3     -22.154  32.601  21.433  0.00  0.00    -0.297 N 
ATOM      4  H   TRP A   3     -22.164  33.463  20.852  0.00  0.00    +0.150 HD
ENDROOT
BRANCH   3   5
ATOM      5  CA  TRP A   3     -21.071  32.414  22.388  0.00  0.00    +0.153 C 
BRANCH   5   6
ATOM      6  C   TRP A   3     -21.206  33.554  23.384  0.00  0.00    +0.241 C 
ATOM      7  N   LEU A   4     -21.654  33.216  24.588  0.00  0.00    -0.298 N 
ATOM      8  H   LEU A   4     -21.775  32.208  24.813  0.00  0.00    +0.150 HD
ATOM      9  O   TRP A   3     -20.946  34.713  23.055  0.00  0.00    -0.273 OA
BRANCH   7  10
ATOM     10  CA  LEU A   4     -21.981  34.205  25.603  0.00  0.00    +0.137 C 
BRANCH  10  11
ATOM     11  C   LEU A   4     -21.084  34.068  26.817  0.00  0.00    +0.227 C 
ATOM     12  O   LEU A   4     -20.691  32.961  27.191  0.00  0.00    -0.286 OA
ENDBRANCH  10  11
BRANCH  10  13
ATOM     13  CB  LEU A   4     -23.442  34.063  26.042  0.00  0.00    +0.028 C 
BRANCH  13  14
ATOM     14  CG  LEU A   4     -24.561  34.349  25.038  0.00  0.00    +0.002 C 
ATOM     15  CD2 LEU A   4     -25.893  33.853  25.579  0.00  0.00    +0.000 C 
ATOM     16  CD1 LEU A   4     -24.655  35.822  24.692  0.00  0.00    +0.000 C 
ENDBRANCH  13  14
ENDBRANCH  10  13
ENDBRANCH   7  10
ENDBRANCH   5   6
BRANCH   5  17
ATOM     17  CB  TRP A   3     -19.702  32.437  21.696  0.00  0.00    +0.057 C 
BRANCH  17  18
ATOM     18  CG  TRP A   3     -19.393  31.181  20.930  0.00  0.00    -0.002 A 
ATOM     19  CD1 TRP A   3     -18.572  30.164  21.322  0.00  0.00    +0.068 A 
ATOM     20  NE1 TRP A   3     -18.539  29.180  20.360  0.00  0.00    -0.352 N 
ATOM     21  HE1 TRP A   3     -17.990  28.298  20.415  0.00  0.00    +0.166 HD
ATOM     22  CE2 TRP A   3     -19.348  29.553  19.318  0.00  0.00    +0.056 A 
ATOM     23  CZ2 TRP A   3     -19.637  28.892  18.121  0.00  0.00    +0.017 A 
ATOM     24  CH2 TRP A   3     -20.497  29.510  17.247  0.00  0.00    +0.001 A 
ATOM     25  CZ3 TRP A   3     -21.063  30.764  17.537  0.00  0.00    +0.000 A 
ATOM     26  CE3 TRP A   3     -20.772  31.425  18.728  0.00  0.00    +0.001 A 
ATOM     27  CD2 TRP A   3     -19.904  30.812  19.642  0.00  0.00    +0.013 A 
ENDBRANCH  17  18
ENDBRANCH   5  17
ENDBRANCH   3   5
BRANCH   1  28
ATOM     28  CA  ARG A   2     -24.300  32.169  20.406  0.00  0.00    +0.149 C 
BRANCH  28  30
ATOM     29  C   ASP A   1     -24.762  32.034  18.031  0.00  0.00    +0.239 C 
ATOM     30  N   ARG A   2     -24.309  31.460  19.141  0.00  0.00    -0.297 N 
ATOM     31  H   ARG A   2     -23.954  30.483  19.102  0.00  0.00    +0.150 HD
ATOM     32  O   ASP A   1     -25.169  33.199  17.996  0.00  0.00    -0.274 OA
BRANCH  29  33
ATOM     33  CA  ASP A   1     -24.767  31.163  16.777  0.00  0.00    +0.156 C 
BRANCH  33  34
ATOM     34  N   ASP A   1     -24.636  29.734  17.069  0.00  0.00    -0.238 NA
ATOM     35  H   ASP A   1     -25.045  29.360  17.949  0.00  0.00    +0.142 HD
ENDBRANCH  33  34
BRANCH  33  36
ATOM     36  CB  ASP A   1     -26.033  31.430  15.946  0.00  0.00    +0.140 C 
BRANCH  36  37
ATOM     37  CG  ASP A   1     -27.315  30.953  16.631  0.00  0.00    +0.367 C 
ATOM     38  OD2 ASP A   1     -27.311  30.648  17.848  0.00  0.00    -0.246 OA
ATOM     39  OD1 ASP A   1     -28.346  30.888  15.933  0.00  0.00    -0.246 OA
ENDBRANCH  36  37
ENDBRANCH  33  36
ENDBRANCH  29  33
ENDBRANCH  28  30
BRANCH  28  40
ATOM     40  CB  ARG A   2     -25.647  31.983  21.120  0.00  0.00    +0.033 C 
BRANCH  40  41
ATOM     41  CG  ARG A   2     -25.978  33.033  22.166  0.00  0.00    +0.045 C 
BRANCH  41  42
ATOM     42  CD  ARG A   2     -26.030  34.455  21.602  0.00  0.00    +0.174 C 
BRANCH  42  43
ATOM     43  NE  ARG A   2     -27.373  34.870  21.198  0.00  0.00    -0.265 N 
ATOM     44  HE  ARG A   2     -28.107  34.138  21.122  0.00  0.00    +0.259 HD
ATOM     45  CZ  ARG A   2     -27.714  36.126  20.921  0.00  0.00    +0.342 C 
ATOM     46  NH2 ARG A   2     -26.814  37.100  21.007  0.00  0.00    -0.292 N 
ATOM     47 HH21 ARG A   2     -25.838  36.882  21.292  0.00  0.00    +0.255 HD
ATOM     48 HH22 ARG A   2     -27.086  38.080  20.789  0.00  0.00    +0.255 HD
ATOM     49  NH1 ARG A   2     -28.957  36.417  20.566  0.00  0.00    -0.292 N 
ATOM     50 HH11 ARG A   2     -29.670  35.662  20.503  0.00  0.00    +0.255 HD
ATOM     51 HH12 ARG A   2     -29.220  37.400  20.350  0.00  0.00    +0.255 HD
ENDBRANCH  42  43
ENDBRANCH  41  42
ENDBRANCH  40  41
ENDBRANCH  28  40
ENDBRANCH   1  28
TORSDOF 18
REMARK  Name = ../refined-set-2016/3tay/3tay_pocket.pdb
REMARK  120 active torsions:
REMARK  status: ('A' for Active; 'I' for Inactive)
REMARK    1  A    between atoms: _1  and  _3
REMARK    2  A    between atoms: _3  and  _4
REMARK    3  A    between atoms: _3  and  _6
REMARK    4  A    between atoms: _6  and  _7
REMARK    5  A    between atoms: _10  and  _12
REMARK    6  A    between atoms: _12  and  _13
REMARK    7  A    between atoms: _12  and  _15
REMARK    8  A    between atoms: _15  and  _16
REMARK    9  A    between atoms: _16  and  _17
REMARK   10  A    between atoms: _17  and  _18
REMARK   11  A    between atoms: _27  and  _29
REMARK   12  A    between atoms: _29  and  _30
REMARK   13  A    between atoms: _29  and  _32
REMARK   14  A    between atoms: _32  and  _33
REMARK   15  A    between atoms: _43  and  _45
REMARK   16  A    between atoms: _45  and  _46
REMARK   17  A    between atoms: _45  and  _48
REMARK   18  A    between atoms: _48  and  _49
REMARK   19  A    between atoms: _52  and  _54
REMARK   20  A    between atoms: _54  and  _55
REMARK   21  A    between atoms: _54  and  _57
REMARK   22  A    between atoms: _57  and  _58
REMARK   23  A    between atoms: _61  and  _63
REMARK   24  A    between atoms: _63  and  _64
REMARK   25  A    between atoms: _63  and  _66
REMARK   26  A    between atoms: _69  and  _71
REMARK   27  A    between atoms: _71  and  _72
REMARK   28  A    between atoms: _71  and  _74
REMARK   29  A    between atoms: _74  and  _75
REMARK   30  A    between atoms: _77  and  _79
REMARK   31  A    between atoms: _79  and  _80
REMARK   32  A    between atoms: _79  and  _82
REMARK   33  A    between atoms: _82  and  _83
REMARK   34  A    between atoms: _83  and  _84
REMARK   35  A    between atoms: _84  and  _85
REMARK   36  A    between atoms: _85  and  _86
REMARK   37  A    between atoms: _90  and  _92
REMARK   38  A    between atoms: _92  and  _93
REMARK   39  A    between atoms: _92  and  _95
REMARK   40  A    between atoms: _95  and  _96
REMARK   41  A    between atoms: _99  and  _101
REMARK   42  A    between atoms: _101  and  _102
REMARK   43  A    between atoms: _101  and  _104
REMARK   44  A    between atoms: _104  and  _105
REMARK   45  A    between atoms: _108  and  _110
REMARK   46  A    between atoms: _110  and  _111
REMARK   47  A    between atoms: _110  and  _113
REMARK   48  A    between atoms: _113  and  _114
REMARK   49  A    between atoms: _114  and  _115
REMARK   50  A    between atoms: _120  and  _122
REMARK   51  A    between atoms: _122  and  _123
REMARK   52  A    between atoms: _122  and  _125
REMARK   53  A    between atoms: _125  and  _126
REMARK   54  A    between atoms: _131  and  _133
REMARK   55  A    between atoms: _133  and  _134
REMARK   56  A    between atoms: _134  and  _135
REMARK   57  A    between atoms: _134  and  _136
REMARK   58  A    between atoms: _136  and  _138
REMARK   59  A    between atoms: _138  and  _139
REMARK   60  A    between atoms: _138  and  _141
REMARK   61  A    between atoms: _141  and  _142
REMARK   62  A    between atoms: _144  and  _146
REMARK   63  A    between atoms: _146  and  _147
REMARK   64  A    between atoms: _146  and  _149
REMARK   65  A    between atoms: _149  and  _150
REMARK   66  A    between atoms: _155  and  _156
REMARK   67  A    between atoms: _158  and  _160
REMARK   68  A    between atoms: _160  and  _161
REMARK   69  A    between atoms: _163  and  _165
REMARK   70  A    between atoms: _165  and  _166
REMARK   71  A    between atoms: _165  and  _168
REMARK   72  A    between atoms: _168  and  _169
REMARK   73  A    between atoms: _169  and  _170
REMARK   74  A    between atoms: _170  and  _171
REMARK   75  A    between atoms: _180  and  _182
REMARK   76  A    between atoms: _182  and  _183
REMARK   77  A    between atoms: _182  and  _185
REMARK   78  A    between atoms: _185  and  _186
REMARK   79  A    between atoms: _189  and  _191
REMARK   80  A    between atoms: _191  and  _192
REMARK   81  A    between atoms: _191  and  _194
REMARK   82  A    between atoms: _194  and  _195
REMARK   83  A    between atoms: _200  and  _201
REMARK   84  A    between atoms: _203  and  _205
REMARK   85  A    between atoms: _205  and  _206
REMARK   86  A    between atoms: _205  and  _208
REMARK   87  A    between atoms: _208  and  _209
REMARK   88  A    between atoms: _212  and  _214
REMARK   89  A    between atoms: _214  and  _215
REMARK   90  A    between atoms: _214  and  _217
REMARK   91  A    between atoms: _217  and  _218
REMARK   92  A    between atoms: _223  and  _224
REMARK   93  A    between atoms: _226  and  _228
REMARK   94  A    between atoms: _228  and  _229
REMARK   95  A    between atoms: _228  and  _231
REMARK   96  A    between atoms: _231  and  _232
REMARK   97  A    between atoms: _237  and  _239
REMARK   98  A    between atoms: _239  and  _240
REMARK   99  A    between atoms: _239  and  _242
REMARK  100  A    between atoms: _242  and  _243
REMARK  101  A    between atoms: _246  and  _248
REMARK  102  A    between atoms: _248  and  _249
REMARK  103  A    between atoms: _251  and  _253
REMARK  104  A    between atoms: _253  and  _254
REMARK  105  A    between atoms: _253  and  _256
REMARK  106  A    between atoms: _256  and  _257
REMARK  107  A    between atoms: _262  and  _263
REMARK  108  A    between atoms: _265  and  _267
REMARK  109  A    between atoms: _267  and  _268
REMARK  110  A    between atoms: _267  and  _270
REMARK  111  A    between atoms: _270  and  _271
REMARK  112  A    between atoms: _276  and  _277
REMARK  113  A    between atoms: _279  and  _281
REMARK  114  A    between atoms: _281  and  _282
REMARK  115  A    between atoms: _281  and  _284
REMARK  116  A    between atoms: _284  and  _285
REMARK  117  A    between atoms: _287  and  _289
REMARK  118  A    between atoms: _289  and  _290
REMARK  119  A    between atoms: _289  and  _292
REMARK  120  A    between atoms: _292  and  _293
REMARK                            x       y       z     vdW  Elec       q    Type
REMARK                         _______ _______ _______ _____ _____    ______ ____
ROOT
ATOM      1  C   SER A   3     -21.275  38.091  21.513  0.00  0.00    +0.243 C 
ATOM      2  N   LYS A   4     -20.929  36.925  20.971  0.00  0.00    -0.297 N 
ATOM      3  H   LYS A   4     -20.858  36.080  21.573  0.00  0.00    +0.150 HD
ATOM      4  O   SER A   3     -21.097  39.172  20.953  0.00  0.00    -0.273 OA
ENDROOT
BRANCH   2   5
ATOM      5  CA  LYS A   4     -20.647  36.817  19.538  0.00  0.00    +0.149 C 
BRANCH   5   6
ATOM      6  C   LYS A   4     -21.560  35.786  18.888  0.00  0.00    +0.241 C 
ATOM      7  O   LYS A   4     -21.900  34.769  19.502  0.00  0.00    -0.273 OA
ATOM      8  N   THR A   5     -21.955  36.055  17.649  0.00  0.00    -0.296 N 
ATOM      9  H   THR A   5     -21.511  36.842  17.134  0.00  0.00    +0.150 HD
BRANCH   8  10
ATOM     10  CA  THR A   5     -23.002  35.270  16.991  0.00  0.00    +0.164 C 
BRANCH  10  11
ATOM     11  C   THR A   5     -22.498  34.332  15.890  0.00  0.00    +0.229 C 
ATOM     12  O   THR A   5     -23.285  33.603  15.284  0.00  0.00    -0.286 OA
ENDBRANCH  10  11
BRANCH  10  13
ATOM     13  CB  THR A   5     -24.118  36.181  16.440  0.00  0.00    +0.136 C 
ATOM     14  CG2 THR A   5     -24.801  36.924  17.578  0.00  0.00    +0.034 C 
BRANCH  13  15
ATOM     15  OG1 THR A   5     -23.551  37.128  15.525  0.00  0.00    -0.382 OA
ATOM     16  HG1 THR A   5     -22.877  37.678  15.997  0.00  0.00    +0.210 HD
ENDBRANCH  13  15
ENDBRANCH  10  13
ENDBRANCH   8  10
ENDBRANCH   5   6
BRANCH   5  17
ATOM     17  CB  LYS A   4     -19.162  36.572  19.233  0.00  0.00    +0.029 C 
BRANCH  17  18
ATOM     18  CG  LYS A   4     -18.618  35.201  19.544  0.00  0.00    +0.000 C 
BRANCH  18  19
ATOM     19  CD  LYS A   4     -17.262  35.008  18.872  0.00  0.00    -0.024 C 
BRANCH  19  20
ATOM     20  CE  LYS A   4     -16.683  33.644  19.197  0.00  0.00    -0.086 C 
BRANCH  20  21
ATOM     21  NZ  LYS A   4     -15.335  33.464  18.601  0.00  0.00    +0.380 N 
ATOM     22  HZ1 LYS A   4     -14.692  34.191  18.975  0.00  0.00    -0.089 HD
ATOM     23  HZ2 LYS A   4     -14.973  32.520  18.845  0.00  0.00    -0.089 HD
ATOM     24  HZ3 LYS A   4     -15.399  33.555  17.567  0.00  0.00    -0.089 HD
ENDBRANCH  20  21
ENDBRANCH  19  20
ENDBRANCH  18  19
ENDBRANCH  17  18
ENDBRANCH   5  17
ENDBRANCH   2   5
BRANCH   1  25
ATOM     25  CA  SER A   3     -21.903  38.038  22.900  0.00  0.00    +0.178 C 
BRANCH  25  28
ATOM     26  C   VAL A   2     -21.043  38.626  25.107  0.00  0.00    +0.241 C 
ATOM     27  O   VAL A   2     -21.326  37.522  25.583  0.00  0.00    -0.273 OA
ATOM     28  N   SER A   3     -21.224  38.936  23.826  0.00  0.00    -0.295 N 
ATOM     29  H   SER A   3     -20.870  39.848  23.474  0.00  0.00    +0.150 HD
BRANCH  26  30
ATOM     30  CA  VAL A   2     -20.480  39.735  25.993  0.00  0.00    +0.148 C 
BRANCH  30  32
ATOM     31  C   ASP A   1     -21.822  40.712  27.777  0.00  0.00    +0.239 C 
ATOM     32  N   VAL A   2     -21.109  39.691  27.310  0.00  0.00    -0.297 N 
ATOM     33  H   VAL A   2     -20.997  38.840  27.897  0.00  0.00    +0.150 HD
ATOM     34  O   ASP A   1     -21.953  41.780  27.175  0.00  0.00    -0.274 OA
BRANCH  31  35
ATOM     35  CA  ASP A   1     -22.484  40.498  29.126  0.00  0.00    +0.156 C 
BRANCH  35  36
ATOM     36  N   ASP A   1     -22.257  41.654  29.990  0.00  0.00    -0.238 NA
ATOM     37  H   ASP A   1     -22.989  42.388  30.068  0.00  0.00    +0.142 HD
ENDBRANCH  35  36
BRANCH  35  38
ATOM     38  CB  ASP A   1     -23.974  40.232  28.919  0.00  0.00    +0.140 C 
BRANCH  38  39
ATOM     39  CG  ASP A   1     -24.708  39.964  30.211  0.00  0.00    +0.367 C 
ATOM     40  OD2 ASP A   1     -24.143  39.287  31.097  0.00  0.00    -0.246 OA
ATOM     41  OD1 ASP A   1     -25.862  40.431  30.338  0.00  0.00    -0.246 OA
ENDBRANCH  38  39
ENDBRANCH  35  38
ENDBRANCH  31  35
ENDBRANCH  30  32
BRANCH  30  42
ATOM     42  CB  VAL A   2     -18.927  39.695  26.070  0.00  0.00    +0.027 C 
ATOM     43  CG2 VAL A   2     -18.395  40.923  26.808  0.00  0.00    +0.002 C 
ATOM     44  CG1 VAL A   2     -18.430  38.418  26.737  0.00  0.00    +0.002 C 
ENDBRANCH  30  42
ENDBRANCH  26  30
ENDBRANCH  25  28
BRANCH  25  45
ATOM     45  CB  SER A   3     -23.385  38.424  22.807  0.00  0.00    +0.166 C 
BRANCH  45  46
ATOM     46  OG  SER A   3     -24.024  37.820  21.692  0.00  0.00    -0.380 OA
ATOM     47  H   SER A   3     -23.576  38.111  20.859  0.00  0.00    +0.211 HD
ENDBRANCH  45  46
ENDBRANCH  25  45
ENDBRANCH   1  25
TORSDOF 22
REMARK  Name = ../refined-set-2016/3tay/3tay_pocket.pdb
REMARK  120 active torsions:
REMARK  status: ('A' for Active; 'I' for Inactive)
REMARK    1  A    between atoms: _1  and  _3
REMARK    2  A    between atoms: _3  and  _4
REMARK    3  A    between atoms: _3  and  _6
REMARK    4  A    between atoms: _6  and  _7
REMARK    5  A    between atoms: _10  and  _12
REMARK    6  A    between atoms: _12  and  _13
REMARK    7  A    between atoms: _12  and  _15
REMARK    8  A    between atoms: _15  and  _16
REMARK    9  A    between atoms: _16  and  _17
REMARK   10  A    between atoms: _17  and  _18
REMARK   11  A    between atoms: _27  and  _29
REMARK   12  A    between atoms: _29  and  _30
REMARK   13  A    between atoms: _29  and  _32
REMARK   14  A    between atoms: _32  and  _33
REMARK   15  A    between atoms: _43  and  _45
REMARK   16  A    between atoms: _45  and  _46
REMARK   17  A    between atoms: _45  and  _48
REMARK   18  A    between atoms: _48  and  _49
REMARK   19  A    between atoms: _52  and  _54
REMARK   20  A    between atoms: _54  and  _55
REMARK   21  A    between atoms: _54  and  _57
REMARK   22  A    between atoms: _57  and  _58
REMARK   23  A    between atoms: _61  and  _63
REMARK   24  A    between atoms: _63  and  _64
REMARK   25  A    between atoms: _63  and  _66
REMARK   26  A    between atoms: _69  and  _71
REMARK   27  A    between atoms: _71  and  _72
REMARK   28  A    between atoms: _71  and  _74
REMARK   29  A    between atoms: _74  and  _75
REMARK   30  A    between atoms: _77  and  _79
REMARK   31  A    between atoms: _79  and  _80
REMARK   32  A    between atoms: _79  and  _82
REMARK   33  A    between atoms: _82  and  _83
REMARK   34  A    between atoms: _83  and  _84
REMARK   35  A    between atoms: _84  and  _85
REMARK   36  A    between atoms: _85  and  _86
REMARK   37  A    between atoms: _90  and  _92
REMARK   38  A    between atoms: _92  and  _93
REMARK   39  A    between atoms: _92  and  _95
REMARK   40  A    between atoms: _95  and  _96
REMARK   41  A    between atoms: _99  and  _101
REMARK   42  A    between atoms: _101  and  _102
REMARK   43  A    between atoms: _101  and  _104
REMARK   44  A    between atoms: _104  and  _105
REMARK   45  A    between atoms: _108  and  _110
REMARK   46  A    between atoms: _110  and  _111
REMARK   47  A    between atoms: _110  and  _113
REMARK   48  A    between atoms: _113  and  _114
REMARK   49  A    between atoms: _114  and  _115
REMARK   50  A    between atoms: _120  and  _122
REMARK   51  A    between atoms: _122  and  _123
REMARK   52  A    between atoms: _122  and  _125
REMARK   53  A    between atoms: _125  and  _126
REMARK   54  A    between atoms: _131  and  _133
REMARK   55  A    between atoms: _133  and  _134
REMARK   56  A    between atoms: _134  and  _135
REMARK   57  A    between atoms: _134  and  _136
REMARK   58  A    between atoms: _136  and  _138
REMARK   59  A    between atoms: _138  and  _139
REMARK   60  A    between atoms: _138  and  _141
REMARK   61  A    between atoms: _141  and  _142
REMARK   62  A    between atoms: _144  and  _146
REMARK   63  A    between atoms: _146  and  _147
REMARK   64  A    between atoms: _146  and  _149
REMARK   65  A    between atoms: _149  and  _150
REMARK   66  A    between atoms: _155  and  _156
REMARK   67  A    between atoms: _158  and  _160
REMARK   68  A    between atoms: _160  and  _161
REMARK   69  A    between atoms: _163  and  _165
REMARK   70  A    between atoms: _165  and  _166
REMARK   71  A    between atoms: _165  and  _168
REMARK   72  A    between atoms: _168  and  _169
REMARK   73  A    between atoms: _169  and  _170
REMARK   74  A    between atoms: _170  and  _171
REMARK   75  A    between atoms: _180  and  _182
REMARK   76  A    between atoms: _182  and  _183
REMARK   77  A    between atoms: _182  and  _185
REMARK   78  A    between atoms: _185  and  _186
REMARK   79  A    between atoms: _189  and  _191
REMARK   80  A    between atoms: _191  and  _192
REMARK   81  A    between atoms: _191  and  _194
REMARK   82  A    between atoms: _194  and  _195
REMARK   83  A    between atoms: _200  and  _201
REMARK   84  A    between atoms: _203  and  _205
REMARK   85  A    between atoms: _205  and  _206
REMARK   86  A    between atoms: _205  and  _208
REMARK   87  A    between atoms: _208  and  _209
REMARK   88  A    between atoms: _212  and  _214
REMARK   89  A    between atoms: _214  and  _215
REMARK   90  A    between atoms: _214  and  _217
REMARK   91  A    between atoms: _217  and  _218
REMARK   92  A    between atoms: _223  and  _224
REMARK   93  A    between atoms: _226  and  _228
REMARK   94  A    between atoms: _228  and  _229
REMARK   95  A    between atoms: _228  and  _231
REMARK   96  A    between atoms: _231  and  _232
REMARK   97  A    between atoms: _237  and  _239
REMARK   98  A    between atoms: _239  and  _240
REMARK   99  A    between atoms: _239  and  _242
REMARK  100  A    between atoms: _242  and  _243
REMARK  101  A    between atoms: _246  and  _248
REMARK  102  A    between atoms: _248  and  _249
REMARK  103  A    between atoms: _251  and  _253
REMARK  104  A    between atoms: _253  and  _254
REMARK  105  A    between atoms: _253  and  _256
REMARK  106  A    between atoms: _256  and  _257
REMARK  107  A    between atoms: _262  and  _263
REMARK  108  A    between atoms: _265  and  _267
REMARK  109  A    between atoms: _267  and  _268
REMARK  110  A    between atoms: _267  and  _270
REMARK  111  A    between atoms: _270  and  _271
REMARK  112  A    between atoms: _276  and  _277
REMARK  113  A    between atoms: _279  and  _281
REMARK  114  A    between atoms: _281  and  _282
REMARK  115  A    between atoms: _281  and  _284
REMARK  116  A    between atoms: _284  and  _285
REMARK  117  A    between atoms: _287  and  _289
REMARK  118  A    between atoms: _289  and  _290
REMARK  119  A    between atoms: _289  and  _292
REMARK  120  A    between atoms: _292  and  _293
REMARK                            x       y       z     vdW  Elec       q    Type
REMARK                         _______ _______ _______ _____ _____    ______ ____
ROOT
ATOM      1  C   UNK A   0     -22.590  44.760  25.275  0.00  0.00    +0.000 C 
ATOM      2  N   UNK A   0     -23.247  44.105  26.232  0.00  0.00    +0.000 N 
ATOM      3  H   UNK A   0     -22.723  43.430  26.825  0.00  0.00    +0.000 HD
ATOM      4  O   UNK A   0     -23.102  45.644  24.575  0.00  0.00    +0.000 OA
ENDROOT
BRANCH   2   5
ATOM      5  C   UNK A   0     -24.677  44.298  26.482  0.00  0.00    +0.000 C 
BRANCH   5   6
ATOM      6  C   UNK A   0     -25.005  44.172  27.957  0.00  0.00    +0.000 C 
ATOM      7  O   UNK A   0     -24.281  43.509  28.708  0.00  0.00    +0.000 OA
ATOM      8  N   UNK A   0     -26.107  44.808  28.349  0.00  0.00    +0.000 N 
ATOM      9  H   UNK A   0     -26.535  45.497  27.698  0.00  0.00    +0.000 HD
BRANCH   8  10
ATOM     10  C   UNK A   0     -26.748  44.591  29.645  0.00  0.00    +0.000 C 
BRANCH  10  11
ATOM     11  C   UNK A   0     -25.866  44.667  30.875  0.00  0.00    +0.000 C 
BRANCH  11  12
ATOM     12  O   UNK A   0     -25.881  43.756  31.708  0.00  0.00    +0.000 OA
ATOM     13 NA   UNK A   0     -26.666  41.740  32.292  0.00  0.00    +0.000 Na
ENDBRANCH  11  12
BRANCH  11  14
ATOM     14  N   SER A   1     -25.109  45.751  31.001  0.00  0.00    +0.000 NA
ATOM     15  H   SER A   1     -25.116  46.466  30.246  0.00  0.00    +0.000 HD
BRANCH  14  16
ATOM     16  CA  SER A   1     -24.266  45.963  32.177  0.00  0.00    +0.000 C 
BRANCH  16  17
ATOM     17  C   SER A   1     -25.071  46.010  33.473  0.00  0.00    +0.000 C 
ATOM     18  O   SER A   1     -26.190  46.539  33.510  0.00  0.00    +0.000 OA
ENDBRANCH  16  17
BRANCH  16  19
ATOM     19  CB  SER A   1     -23.455  47.250  32.035  0.00  0.00    +0.000 C 
BRANCH  19  20
ATOM     20  OG  SER A   1     -22.599  47.186  30.907  0.00  0.00    +0.000 OA
ATOM     21  H   SER A   1     -22.085  48.029  30.836  0.00  0.00    +0.000 HD
ENDBRANCH  19  20
ENDBRANCH  16  19
ENDBRANCH  14  16
ENDBRANCH  11  14
ENDBRANCH  10  11
ENDBRANCH   8  10
ENDBRANCH   5   6
BRANCH   5  22
ATOM     22  C   UNK A   0     -25.503  43.250  25.727  0.00  0.00    +0.000 C 
BRANCH  22  23
ATOM     23  C   UNK A   0     -25.178  43.155  24.271  0.00  0.00    +0.000 A 
ATOM     24  C   UNK A   0     -24.289  42.382  23.606  0.00  0.00    +0.000 A 
ATOM     25  N   UNK A   0     -24.390  42.705  22.275  0.00  0.00    +0.000 NA
ATOM     26  C   UNK A   0     -25.307  43.644  22.129  0.00  0.00    +0.000 A 
ATOM     27  N   UNK A   0     -25.798  43.934  23.320  0.00  0.00    +0.000 NA
ENDBRANCH  22  23
ENDBRANCH   5  22
ENDBRANCH   2   5
BRANCH   1  28
ATOM     28  C   UNK A   0     -21.131  44.353  25.079  0.00  0.00    +0.000 C 
BRANCH  28  30
ATOM     29  C   UNK A   0     -20.689  43.034  23.061  0.00  0.00    +0.000 C 
ATOM     30  N   UNK A   0     -20.802  44.217  23.660  0.00  0.00    +0.000 N 
ATOM     31  H   UNK A   0     -20.651  45.078  23.097  0.00  0.00    +0.000 HD
ATOM     32  O   UNK A   0     -20.910  41.965  23.631  0.00  0.00    +0.000 OA
BRANCH  29  33
ATOM     33  C   UNK A   0     -20.251  43.052  21.598  0.00  0.00    +0.000 C 
BRANCH  33  34
ATOM     34  C   UNK A   0     -21.437  43.408  20.684  0.00  0.00    +0.000 C 
ATOM     35  C   UNK A   0     -20.952  43.715  19.268  0.00  0.00    +0.000 C 
BRANCH  34  36
ATOM     36  O   UNK A   0     -22.353  42.309  20.638  0.00  0.00    +0.000 OA
ATOM     37  H   UNK A   0     -22.685  42.120  21.551  0.00  0.00    +0.000 HD
ENDBRANCH  34  36
ENDBRANCH  33  34
BRANCH  33  38
ATOM     38  N   UNK A   0     -19.680  41.753  21.266  0.00  0.00    +0.000 NA
ATOM     39  H   UNK A   0     -20.316  40.939  21.146  0.00  0.00    +0.000 HD
ENDBRANCH  33  38
ENDBRANCH  29  33
ENDBRANCH  28  30
BRANCH  28  40
ATOM     40  C   UNK A   0     -20.201  45.366  25.746  0.00  0.00    +0.000 C 
BRANCH  40  41
ATOM     41  C   UNK A   0     -18.732  44.934  25.773  0.00  0.00    +0.000 C 
BRANCH  41  42
ATOM     42  C   UNK A   0     -17.802  46.025  26.271  0.00  0.00    +0.000 C 
ATOM     43  O   UNK A   0     -18.152  46.803  27.162  0.00  0.00    +0.000 OA
ATOM     44  N   UNK A   0     -16.601  46.080  25.703  0.00  0.00    +0.000 N 
ATOM     45  H   UNK A   0     -15.914  46.800  26.007  0.00  0.00    +0.000 HD
ATOM     46  H   UNK A   0     -16.348  45.403  24.955  0.00  0.00    +0.000 HD
ENDBRANCH  41  42
ENDBRANCH  40  41
ENDBRANCH  28  40
ENDBRANCH   1  28
TORSDOF 21
REMARK  Name = ../refined-set-2016/3tay/3tay_pocket.pdb
REMARK  120 active torsions:
REMARK  status: ('A' for Active; 'I' for Inactive)
REMARK    1  A    between atoms: _1  and  _3
REMARK    2  A    between atoms: _3  and  _4
REMARK    3  A    between atoms: _3  and  _6
REMARK    4  A    between atoms: _6  and  _7
REMARK    5  A    between atoms: _10  and  _12
REMARK    6  A    between atoms: _12  and  _13
REMARK    7  A    between atoms: _12  and  _15
REMARK    8  A    between atoms: _15  and  _16
REMARK    9  A    between atoms: _16  and  _17
REMARK   10  A    between atoms: _17  and  _18
REMARK   11  A    between atoms: _27  and  _29
REMARK   12  A    between atoms: _29  and  _30
REMARK   13  A    between atoms: _29  and  _32
REMARK   14  A    between atoms: _32  and  _33
REMARK   15  A    between atoms: _43  and  _45
REMARK   16  A    between atoms: _45  and  _46
REMARK   17  A    between atoms: _45  and  _48
REMARK   18  A    between atoms: _48  and  _49
REMARK   19  A    between atoms: _52  and  _54
REMARK   20  A    between atoms: _54  and  _55
REMARK   21  A    between atoms: _54  and  _57
REMARK   22  A    between atoms: _57  and  _58
REMARK   23  A    between atoms: _61  and  _63
REMARK   24  A    between atoms: _63  and  _64
REMARK   25  A    between atoms: _63  and  _66
REMARK   26  A    between atoms: _69  and  _71
REMARK   27  A    between atoms: _71  and  _72
REMARK   28  A    between atoms: _71  and  _74
REMARK   29  A    between atoms: _74  and  _75
REMARK   30  A    between atoms: _77  and  _79
REMARK   31  A    between atoms: _79  and  _80
REMARK   32  A    between atoms: _79  and  _82
REMARK   33  A    between atoms: _82  and  _83
REMARK   34  A    between atoms: _83  and  _84
REMARK   35  A    between atoms: _84  and  _85
REMARK   36  A    between atoms: _85  and  _86
REMARK   37  A    between atoms: _90  and  _92
REMARK   38  A    between atoms: _92  and  _93
REMARK   39  A    between atoms: _92  and  _95
REMARK   40  A    between atoms: _95  and  _96
REMARK   41  A    between atoms: _99  and  _101
REMARK   42  A    between atoms: _101  and  _102
REMARK   43  A    between atoms: _101  and  _104
REMARK   44  A    between atoms: _104  and  _105
REMARK   45  A    between atoms: _108  and  _110
REMARK   46  A    between atoms: _110  and  _111
REMARK   47  A    between atoms: _110  and  _113
REMARK   48  A    between atoms: _113  and  _114
REMARK   49  A    between atoms: _114  and  _115
REMARK   50  A    between atoms: _120  and  _122
REMARK   51  A    between atoms: _122  and  _123
REMARK   52  A    between atoms: _122  and  _125
REMARK   53  A    between atoms: _125  and  _126
REMARK   54  A    between atoms: _131  and  _133
REMARK   55  A    between atoms: _133  and  _134
REMARK   56  A    between atoms: _134  and  _135
REMARK   57  A    between atoms: _134  and  _136
REMARK   58  A    between atoms: _136  and  _138
REMARK   59  A    between atoms: _138  and  _139
REMARK   60  A    between atoms: _138  and  _141
REMARK   61  A    between atoms: _141  and  _142
REMARK   62  A    between atoms: _144  and  _146
REMARK   63  A    between atoms: _146  and  _147
REMARK   64  A    between atoms: _146  and  _149
REMARK   65  A    between atoms: _149  and  _150
REMARK   66  A    between atoms: _155  and  _156
REMARK   67  A    between atoms: _158  and  _160
REMARK   68  A    between atoms: _160  and  _161
REMARK   69  A    between atoms: _163  and  _165
REMARK   70  A    between atoms: _165  and  _166
REMARK   71  A    between atoms: _165  and  _168
REMARK   72  A    between atoms: _168  and  _169
REMARK   73  A    between atoms: _169  and  _170
REMARK   74  A    between atoms: _170  and  _171
REMARK   75  A    between atoms: _180  and  _182
REMARK   76  A    between atoms: _182  and  _183
REMARK   77  A    between atoms: _182  and  _185
REMARK   78  A    between atoms: _185  and  _186
REMARK   79  A    between atoms: _189  and  _191
REMARK   80  A    between atoms: _191  and  _192
REMARK   81  A    between atoms: _191  and  _194
REMARK   82  A    between atoms: _194  and  _195
REMARK   83  A    between atoms: _200  and  _201
REMARK   84  A    between atoms: _203  and  _205
REMARK   85  A    between atoms: _205  and  _206
REMARK   86  A    between atoms: _205  and  _208
REMARK   87  A    between atoms: _208  and  _209
REMARK   88  A    between atoms: _212  and  _214
REMARK   89  A    between atoms: _214  and  _215
REMARK   90  A    between atoms: _214  and  _217
REMARK   91  A    between atoms: _217  and  _218
REMARK   92  A    between atoms: _223  and  _224
REMARK   93  A    between atoms: _226  and  _228
REMARK   94  A    between atoms: _228  and  _229
REMARK   95  A    between atoms: _228  and  _231
REMARK   96  A    between atoms: _231  and  _232
REMARK   97  A    between atoms: _237  and  _239
REMARK   98  A    between atoms: _239  and  _240
REMARK   99  A    between atoms: _239  and  _242
REMARK  100  A    between atoms: _242  and  _243
REMARK  101  A    between atoms: _246  and  _248
REMARK  102  A    between atoms: _248  and  _249
REMARK  103  A    between atoms: _251  and  _253
REMARK  104  A    between atoms: _253  and  _254
REMARK  105  A    between atoms: _253  and  _256
REMARK  106  A    between atoms: _256  and  _257
REMARK  107  A    between atoms: _262  and  _263
REMARK  108  A    between atoms: _265  and  _267
REMARK  109  A    between atoms: _267  and  _268
REMARK  110  A    between atoms: _267  and  _270
REMARK  111  A    between atoms: _270  and  _271
REMARK  112  A    between atoms: _276  and  _277
REMARK  113  A    between atoms: _279  and  _281
REMARK  114  A    between atoms: _281  and  _282
REMARK  115  A    between atoms: _281  and  _284
REMARK  116  A    between atoms: _284  and  _285
REMARK  117  A    between atoms: _287  and  _289
REMARK  118  A    between atoms: _289  and  _290
REMARK  119  A    between atoms: _289  and  _292
REMARK  120  A    between atoms: _292  and  _293
REMARK                            x       y       z     vdW  Elec       q    Type
REMARK                         _______ _______ _______ _____ _____    ______ ____
ROOT
ATOM      1  CG  TYR A   1     -24.177  38.524  36.996  0.00  0.00    -0.020 A 
ATOM      2  CD2 TYR A   1     -24.611  39.843  36.860  0.00  0.00    -0.001 A 
ATOM      3  CE2 TYR A   1     -25.007  40.347  35.627  0.00  0.00    +0.036 A 
ATOM      4  CZ  TYR A   1     -24.958  39.530  34.511  0.00  0.00    +0.134 A 
ATOM      5  CE1 TYR A   1     -24.530  38.216  34.616  0.00  0.00    +0.036 A 
ATOM      6  CD1 TYR A   1     -24.138  37.720  35.857  0.00  0.00    -0.001 A 
ENDROOT
BRANCH   4   7
ATOM      7  OH  TYR A   1     -25.343  40.040  33.287  0.00  0.00    -0.506 OA
ATOM      8  HH  TYR A   1     -24.583  39.986  32.655  0.00  0.00    +0.292 HD
ENDBRANCH   4   7
BRANCH   1   9
ATOM      9  CB  TYR A   1     -23.739  37.986  38.342  0.00  0.00    +0.051 C 
BRANCH   9  10
ATOM     10  CA  TYR A   1     -24.821  38.030  39.415  0.00  0.00    +0.137 C 
BRANCH  10  11
ATOM     11  N   TYR A   1     -24.213  38.101  40.737  0.00  0.00    -0.239 NA
ATOM     12  H   TYR A   1     -23.754  37.252  41.125  0.00  0.00    +0.142 HD
ENDBRANCH  10  11
BRANCH  10  13
ATOM     13  C   TYR A   1     -25.709  36.795  39.316  0.00  0.00    +0.224 C 
ATOM     14  O   TYR A   1     -25.642  35.904  40.165  0.00  0.00    -0.287 OA
ENDBRANCH  10  13
ENDBRANCH   9  10
ENDBRANCH   1   9
TORSDOF 5
REMARK  Name = ../refined-set-2016/3tay/3tay_pocket.pdb
REMARK  120 active torsions:
REMARK  status: ('A' for Active; 'I' for Inactive)
REMARK    1  A    between atoms: _1  and  _3
REMARK    2  A    between atoms: _3  and  _4
REMARK    3  A    between atoms: _3  and  _6
REMARK    4  A    between atoms: _6  and  _7
REMARK    5  A    between atoms: _10  and  _12
REMARK    6  A    between atoms: _12  and  _13
REMARK    7  A    between atoms: _12  and  _15
REMARK    8  A    between atoms: _15  and  _16
REMARK    9  A    between atoms: _16  and  _17
REMARK   10  A    between atoms: _17  and  _18
REMARK   11  A    between atoms: _27  and  _29
REMARK   12  A    between atoms: _29  and  _30
REMARK   13  A    between atoms: _29  and  _32
REMARK   14  A    between atoms: _32  and  _33
REMARK   15  A    between atoms: _43  and  _45
REMARK   16  A    between atoms: _45  and  _46
REMARK   17  A    between atoms: _45  and  _48
REMARK   18  A    between atoms: _48  and  _49
REMARK   19  A    between atoms: _52  and  _54
REMARK   20  A    between atoms: _54  and  _55
REMARK   21  A    between atoms: _54  and  _57
REMARK   22  A    between atoms: _57  and  _58
REMARK   23  A    between atoms: _61  and  _63
REMARK   24  A    between atoms: _63  and  _64
REMARK   25  A    between atoms: _63  and  _66
REMARK   26  A    between atoms: _69  and  _71
REMARK   27  A    between atoms: _71  and  _72
REMARK   28  A    between atoms: _71  and  _74
REMARK   29  A    between atoms: _74  and  _75
REMARK   30  A    between atoms: _77  and  _79
REMARK   31  A    between atoms: _79  and  _80
REMARK   32  A    between atoms: _79  and  _82
REMARK   33  A    between atoms: _82  and  _83
REMARK   34  A    between atoms: _83  and  _84
REMARK   35  A    between atoms: _84  and  _85
REMARK   36  A    between atoms: _85  and  _86
REMARK   37  A    between atoms: _90  and  _92
REMARK   38  A    between atoms: _92  and  _93
REMARK   39  A    between atoms: _92  and  _95
REMARK   40  A    between atoms: _95  and  _96
REMARK   41  A    between atoms: _99  and  _101
REMARK   42  A    between atoms: _101  and  _102
REMARK   43  A    between atoms: _101  and  _104
REMARK   44  A    between atoms: _104  and  _105
REMARK   45  A    between atoms: _108  and  _110
REMARK   46  A    between atoms: _110  and  _111
REMARK   47  A    between atoms: _110  and  _113
REMARK   48  A    between atoms: _113  and  _114
REMARK   49  A    between atoms: _114  and  _115
REMARK   50  A    between atoms: _120  and  _122
REMARK   51  A    between atoms: _122  and  _123
REMARK   52  A    between atoms: _122  and  _125
REMARK   53  A    between atoms: _125  and  _126
REMARK   54  A    between atoms: _131  and  _133
REMARK   55  A    between atoms: _133  and  _134
REMARK   56  A    between atoms: _134  and  _135
REMARK   57  A    between atoms: _134  and  _136
REMARK   58  A    between atoms: _136  and  _138
REMARK   59  A    between atoms: _138  and  _139
REMARK   60  A    between atoms: _138  and  _141
REMARK   61  A    between atoms: _141  and  _142
REMARK   62  A    between atoms: _144  and  _146
REMARK   63  A    between atoms: _146  and  _147
REMARK   64  A    between atoms: _146  and  _149
REMARK   65  A    between atoms: _149  and  _150
REMARK   66  A    between atoms: _155  and  _156
REMARK   67  A    between atoms: _158  and  _160
REMARK   68  A    between atoms: _160  and  _161
REMARK   69  A    between atoms: _163  and  _165
REMARK   70  A    between atoms: _165  and  _166
REMARK   71  A    between atoms: _165  and  _168
REMARK   72  A    between atoms: _168  and  _169
REMARK   73  A    between atoms: _169  and  _170
REMARK   74  A    between atoms: _170  and  _171
REMARK   75  A    between atoms: _180  and  _182
REMARK   76  A    between atoms: _182  and  _183
REMARK   77  A    between atoms: _182  and  _185
REMARK   78  A    between atoms: _185  and  _186
REMARK   79  A    between atoms: _189  and  _191
REMARK   80  A    between atoms: _191  and  _192
REMARK   81  A    between atoms: _191  and  _194
REMARK   82  A    between atoms: _194  and  _195
REMARK   83  A    between atoms: _200  and  _201
REMARK   84  A    between atoms: _203  and  _205
REMARK   85  A    between atoms: _205  and  _206
REMARK   86  A    between atoms: _205  and  _208
REMARK   87  A    between atoms: _208  and  _209
REMARK   88  A    between atoms: _212  and  _214
REMARK   89  A    between atoms: _214  and  _215
REMARK   90  A    between atoms: _214  and  _217
REMARK   91  A    between atoms: _217  and  _218
REMARK   92  A    between atoms: _223  and  _224
REMARK   93  A    between atoms: _226  and  _228
REMARK   94  A    between atoms: _228  and  _229
REMARK   95  A    between atoms: _228  and  _231
REMARK   96  A    between atoms: _231  and  _232
REMARK   97  A    between atoms: _237  and  _239
REMARK   98  A    between atoms: _239  and  _240
REMARK   99  A    between atoms: _239  and  _242
REMARK  100  A    between atoms: _242  and  _243
REMARK  101  A    between atoms: _246  and  _248
REMARK  102  A    between atoms: _248  and  _249
REMARK  103  A    between atoms: _251  and  _253
REMARK  104  A    between atoms: _253  and  _254
REMARK  105  A    between atoms: _253  and  _256
REMARK  106  A    between atoms: _256  and  _257
REMARK  107  A    between atoms: _262  and  _263
REMARK  108  A    between atoms: _265  and  _267
REMARK  109  A    between atoms: _267  and  _268
REMARK  110  A    between atoms: _267  and  _270
REMARK  111  A    between atoms: _270  and  _271
REMARK  112  A    between atoms: _276  and  _277
REMARK  113  A    between atoms: _279  and  _281
REMARK  114  A    between atoms: _281  and  _282
REMARK  115  A    between atoms: _281  and  _284
REMARK  116  A    between atoms: _284  and  _285
REMARK  117  A    between atoms: _287  and  _289
REMARK  118  A    between atoms: _289  and  _290
REMARK  119  A    between atoms: _289  and  _292
REMARK  120  A    between atoms: _292  and  _293
REMARK                            x       y       z     vdW  Elec       q    Type
REMARK                         _______ _______ _______ _____ _____    ______ ____
ROOT
ATOM      1  CA  TYR A   4     -31.584  35.642  31.113  0.00  0.00    +0.153 C 
ENDROOT
BRANCH   1   2
ATOM      2  C   TYR A   4     -30.449  36.023  32.050  0.00  0.00    +0.241 C 
ATOM      3  O   TYR A   4     -29.773  35.155  32.597  0.00  0.00    -0.273 OA
ATOM      4  N   THR A   5     -30.258  37.327  32.235  0.00  0.00    -0.295 N 
ATOM      5  H   THR A   5     -30.815  37.998  31.668  0.00  0.00    +0.150 HD
BRANCH   4   6
ATOM      6  CA  THR A   5     -29.297  37.856  33.202  0.00  0.00    +0.176 C 
BRANCH   6   7
ATOM      7  C   THR A   5     -29.895  39.100  33.867  0.00  0.00    +0.243 C 
ATOM      8  N   TYR A   6     -29.138  39.727  34.766  0.00  0.00    -0.297 N 
ATOM      9  H   TYR A   6     -28.221  39.313  35.029  0.00  0.00    +0.150 HD
ATOM     10  O   THR A   5     -31.032  39.476  33.569  0.00  0.00    -0.273 OA
BRANCH   8  11
ATOM     11  CA  TYR A   6     -29.557  40.980  35.394  0.00  0.00    +0.153 C 
BRANCH  11  12
ATOM     12  C   TYR A   6     -28.819  42.181  34.812  0.00  0.00    +0.241 C 
ATOM     13  N   ASN A   7     -29.503  43.320  34.765  0.00  0.00    -0.298 N 
ATOM     14  H   ASN A   7     -30.501  43.319  35.056  0.00  0.00    +0.150 HD
ATOM     15  O   TYR A   6     -27.665  42.069  34.386  0.00  0.00    -0.273 OA
BRANCH  13  16
ATOM     16  CA  ASN A   7     -28.900  44.573  34.318  0.00  0.00    +0.146 C 
BRANCH  16  17
ATOM     17  C   ASN A   7     -29.402  45.768  35.119  0.00  0.00    +0.227 C 
ATOM     18  O   ASN A   7     -30.348  45.646  35.903  0.00  0.00    -0.286 OA
ENDBRANCH  16  17
BRANCH  16  19
ATOM     19  CB  ASN A   7     -29.084  44.794  32.804  0.00  0.00    +0.112 C 
BRANCH  19  20
ATOM     20  CG  ASN A   7     -30.503  44.519  32.323  0.00  0.00    +0.222 C 
ATOM     21  ND2 ASN A   7     -31.478  45.188  32.922  0.00  0.00    -0.329 N 
ATOM     22 HD21 ASN A   7     -31.257  45.853  33.690  0.00  0.00    +0.145 HD
ATOM     23 HD22 ASN A   7     -32.464  45.048  32.624  0.00  0.00    +0.145 HD
ATOM     24  OD1 ASN A   7     -30.712  43.720  31.408  0.00  0.00    -0.275 OA
ENDBRANCH  19  20
ENDBRANCH  16  19
ENDBRANCH  13  16
ENDBRANCH  11  12
BRANCH  11  25
ATOM     25  CB  TYR A   6     -29.379  40.919  36.917  0.00  0.00    +0.055 C 
BRANCH  25  26
ATOM     26  CG  TYR A   6     -30.485  40.164  37.626  0.00  0.00    -0.020 A 
ATOM     27  CD2 TYR A   6     -31.532  40.842  38.243  0.00  0.00    -0.001 A 
ATOM     28  CE2 TYR A   6     -32.562  40.146  38.896  0.00  0.00    +0.036 A 
ATOM     29  CZ  TYR A   6     -32.534  38.762  38.932  0.00  0.00    +0.134 A 
ATOM     30  CE1 TYR A   6     -31.500  38.065  38.326  0.00  0.00    +0.036 A 
ATOM     31  CD1 TYR A   6     -30.483  38.767  37.678  0.00  0.00    -0.001 A 
BRANCH  29  32
ATOM     32  OH  TYR A   6     -33.538  38.068  39.575  0.00  0.00    -0.506 OA
ATOM     33  HH  TYR A   6     -33.562  38.332  40.529  0.00  0.00    +0.292 HD
ENDBRANCH  29  32
ENDBRANCH  25  26
ENDBRANCH  11  25
ENDBRANCH   8  11
ENDBRANCH   6   7
BRANCH   6  34
ATOM     34  CB  THR A   5     -27.936  38.219  32.545  0.00  0.00    +0.137 C 
ATOM     35  CG2 THR A   5     -27.361  37.063  31.726  0.00  0.00    +0.034 C 
BRANCH  34  36
ATOM     36  OG1 THR A   5     -28.094  39.365  31.702  0.00  0.00    -0.382 OA
ATOM     37  HG1 THR A   5     -27.224  39.590  31.287  0.00  0.00    +0.210 HD
ENDBRANCH  34  36
ENDBRANCH   6  34
ENDBRANCH   4   6
ENDBRANCH   1   2
BRANCH   1  39
ATOM     38  C   ILE A   3     -30.762  34.493  29.108  0.00  0.00    +0.241 C 
ATOM     39  N   TYR A   4     -31.254  34.443  30.345  0.00  0.00    -0.297 N 
ATOM     40  H   TYR A   4     -31.410  33.512  30.782  0.00  0.00    +0.150 HD
ATOM     41  O   ILE A   3     -30.552  35.549  28.505  0.00  0.00    -0.273 OA
BRANCH  38  42
ATOM     42  CA  ILE A   3     -30.501  33.143  28.444  0.00  0.00    +0.149 C 
BRANCH  42  45
ATOM     43  C   ARG A   2     -32.395  32.241  27.209  0.00  0.00    +0.241 C 
ATOM     44  O   ARG A   2     -32.623  31.352  28.040  0.00  0.00    -0.273 OA
ATOM     45  N   ILE A   3     -31.343  33.054  27.259  0.00  0.00    -0.297 N 
ATOM     46  H   ILE A   3     -31.116  33.641  26.431  0.00  0.00    +0.150 HD
BRANCH  43  47
ATOM     47  CA  ARG A   2     -33.331  32.472  26.037  0.00  0.00    +0.149 C 
BRANCH  47  49
ATOM     48  C   GLY A   1     -34.385  30.850  24.531  0.00  0.00    +0.240 C 
ATOM     49  N   ARG A   2     -34.138  31.286  25.764  0.00  0.00    -0.297 N 
ATOM     50  H   ARG A   2     -34.537  30.760  26.567  0.00  0.00    +0.150 HD
ATOM     51  O   GLY A   1     -33.921  31.383  23.520  0.00  0.00    -0.274 OA
BRANCH  48  52
ATOM     52  CA  GLY A   1     -35.295  29.636  24.420  0.00  0.00    +0.169 C 
BRANCH  52  53
ATOM     53  N   GLY A   1     -36.233  29.469  25.539  0.00  0.00    -0.236 NA
ATOM     54  H   GLY A   1     -36.177  28.606  26.116  0.00  0.00    +0.142 HD
ENDBRANCH  52  53
ENDBRANCH  48  52
ENDBRANCH  47  49
BRANCH  47  55
ATOM     55  CB  ARG A   2     -34.217  33.664  26.408  0.00  0.00    +0.033 C 
BRANCH  55  56
ATOM     56  CG  ARG A   2     -35.171  34.158  25.345  0.00  0.00    +0.045 C 
BRANCH  56  57
ATOM     57  CD  ARG A   2     -36.313  34.903  26.006  0.00  0.00    +0.174 C 
BRANCH  57  58
ATOM     58  NE  ARG A   2     -37.158  35.594  25.035  0.00  0.00    -0.265 N 
ATOM     59  CZ  ARG A   2     -38.185  36.380  25.351  0.00  0.00    +0.342 C 
ATOM     60  NH2 ARG A   2     -38.509  36.587  26.622  0.00  0.00    -0.292 N 
ATOM     61 HH21 ARG A   2     -37.959  36.134  27.379  0.00  0.00    +0.255 HD
ATOM     62 HH22 ARG A   2     -39.313  37.202  26.860  0.00  0.00    +0.255 HD
ATOM     63  NH1 ARG A   2     -38.889  36.968  24.391  0.00  0.00    -0.292 N 
ATOM     64 HH11 ARG A   2     -39.692  37.582  24.637  0.00  0.00    +0.255 HD
ATOM     65 HH12 ARG A   2     -38.638  36.814  23.394  0.00  0.00    +0.255 HD
ATOM     66  HE  ARG A   2     -36.942  35.463  24.026  0.00  0.00    +0.259 HD
ENDBRANCH  57  58
ENDBRANCH  56  57
ENDBRANCH  55  56
ENDBRANCH  47  55
ENDBRANCH  43  47
ENDBRANCH  42  45
BRANCH  42  67
ATOM     67  CB  ILE A   3     -29.001  32.909  28.120  0.00  0.00    +0.027 C 
ATOM     68  CG2 ILE A   3     -28.110  33.364  29.282  0.00  0.00    +0.002 C 
BRANCH  67  69
ATOM     69  CG1 ILE A   3     -28.771  31.425  27.801  0.00  0.00    +0.002 C 
ATOM     70  CD1 ILE A   3     -27.374  31.073  27.318  0.00  0.00    +0.000 C 
ENDBRANCH  67  69
ENDBRANCH  42  67
ENDBRANCH  38  42
ENDBRANCH   1  39
BRANCH   1  71
ATOM     71  CB  TYR A   4     -32.842  35.423  31.955  0.00  0.00    +0.055 C 
BRANCH  71  72
ATOM     72  CG  TYR A   4     -34.140  35.395  31.188  0.00  0.00    -0.020 A 
ATOM     73  CD2 TYR A   4     -34.982  36.506  31.167  0.00  0.00    -0.001 A 
ATOM     74  CE2 TYR A   4     -36.188  36.480  30.470  0.00  0.00    +0.036 A 
ATOM     75  CZ  TYR A   4     -36.555  35.329  29.796  0.00  0.00    +0.134 A 
ATOM     76  CE1 TYR A   4     -35.738  34.213  29.810  0.00  0.00    +0.036 A 
ATOM     77  CD1 TYR A   4     -34.542  34.248  30.507  0.00  0.00    -0.001 A 
BRANCH  75  78
ATOM     78  OH  TYR A   4     -37.740  35.282  29.104  0.00  0.00    -0.506 OA
ATOM     79  HH  TYR A   4     -38.492  35.443  29.728  0.00  0.00    +0.292 HD
ENDBRANCH  75  78
ENDBRANCH  71  72
ENDBRANCH   1  71
TORSDOF 30
REMARK  Name = ../refined-set-2016/3tay/3tay_pocket.pdb
REMARK  120 active torsions:
REMARK  status: ('A' for Active; 'I' for Inactive)
REMARK    1  A    between atoms: _1  and  _3
REMARK    2  A    between atoms: _3  and  _4
REMARK    3  A    between atoms: _3  and  _6
REMARK    4  A    between atoms: _6  and  _7
REMARK    5  A    between atoms: _10  and  _12
REMARK    6  A    between atoms: _12  and  _13
REMARK    7  A    between atoms: _12  and  _15
REMARK    8  A    between atoms: _15  and  _16
REMARK    9  A    between atoms: _16  and  _17
REMARK   10  A    between atoms: _17  and  _18
REMARK   11  A    between atoms: _27  and  _29
REMARK   12  A    between atoms: _29  and  _30
REMARK   13  A    between atoms: _29  and  _32
REMARK   14  A    between atoms: _32  and  _33
REMARK   15  A    between atoms: _43  and  _45
REMARK   16  A    between atoms: _45  and  _46
REMARK   17  A    between atoms: _45  and  _48
REMARK   18  A    between atoms: _48  and  _49
REMARK   19  A    between atoms: _52  and  _54
REMARK   20  A    between atoms: _54  and  _55
REMARK   21  A    between atoms: _54  and  _57
REMARK   22  A    between atoms: _57  and  _58
REMARK   23  A    between atoms: _61  and  _63
REMARK   24  A    between atoms: _63  and  _64
REMARK   25  A    between atoms: _63  and  _66
REMARK   26  A    between atoms: _69  and  _71
REMARK   27  A    between atoms: _71  and  _72
REMARK   28  A    between atoms: _71  and  _74
REMARK   29  A    between atoms: _74  and  _75
REMARK   30  A    between atoms: _77  and  _79
REMARK   31  A    between atoms: _79  and  _80
REMARK   32  A    between atoms: _79  and  _82
REMARK   33  A    between atoms: _82  and  _83
REMARK   34  A    between atoms: _83  and  _84
REMARK   35  A    between atoms: _84  and  _85
REMARK   36  A    between atoms: _85  and  _86
REMARK   37  A    between atoms: _90  and  _92
REMARK   38  A    between atoms: _92  and  _93
REMARK   39  A    between atoms: _92  and  _95
REMARK   40  A    between atoms: _95  and  _96
REMARK   41  A    between atoms: _99  and  _101
REMARK   42  A    between atoms: _101  and  _102
REMARK   43  A    between atoms: _101  and  _104
REMARK   44  A    between atoms: _104  and  _105
REMARK   45  A    between atoms: _108  and  _110
REMARK   46  A    between atoms: _110  and  _111
REMARK   47  A    between atoms: _110  and  _113
REMARK   48  A    between atoms: _113  and  _114
REMARK   49  A    between atoms: _114  and  _115
REMARK   50  A    between atoms: _120  and  _122
REMARK   51  A    between atoms: _122  and  _123
REMARK   52  A    between atoms: _122  and  _125
REMARK   53  A    between atoms: _125  and  _126
REMARK   54  A    between atoms: _131  and  _133
REMARK   55  A    between atoms: _133  and  _134
REMARK   56  A    between atoms: _134  and  _135
REMARK   57  A    between atoms: _134  and  _136
REMARK   58  A    between atoms: _136  and  _138
REMARK   59  A    between atoms: _138  and  _139
REMARK   60  A    between atoms: _138  and  _141
REMARK   61  A    between atoms: _141  and  _142
REMARK   62  A    between atoms: _144  and  _146
REMARK   63  A    between atoms: _146  and  _147
REMARK   64  A    between atoms: _146  and  _149
REMARK   65  A    between atoms: _149  and  _150
REMARK   66  A    between atoms: _155  and  _156
REMARK   67  A    between atoms: _158  and  _160
REMARK   68  A    between atoms: _160  and  _161
REMARK   69  A    between atoms: _163  and  _165
REMARK   70  A    between atoms: _165  and  _166
REMARK   71  A    between atoms: _165  and  _168
REMARK   72  A    between atoms: _168  and  _169
REMARK   73  A    between atoms: _169  and  _170
REMARK   74  A    between atoms: _170  and  _171
REMARK   75  A    between atoms: _180  and  _182
REMARK   76  A    between atoms: _182  and  _183
REMARK   77  A    between atoms: _182  and  _185
REMARK   78  A    between atoms: _185  and  _186
REMARK   79  A    between atoms: _189  and  _191
REMARK   80  A    between atoms: _191  and  _192
REMARK   81  A    between atoms: _191  and  _194
REMARK   82  A    between atoms: _194  and  _195
REMARK   83  A    between atoms: _200  and  _201
REMARK   84  A    between atoms: _203  and  _205
REMARK   85  A    between atoms: _205  and  _206
REMARK   86  A    between atoms: _205  and  _208
REMARK   87  A    between atoms: _208  and  _209
REMARK   88  A    between atoms: _212  and  _214
REMARK   89  A    between atoms: _214  and  _215
REMARK   90  A    between atoms: _214  and  _217
REMARK   91  A    between atoms: _217  and  _218
REMARK   92  A    between atoms: _223  and  _224
REMARK   93  A    between atoms: _226  and  _228
REMARK   94  A    between atoms: _228  and  _229
REMARK   95  A    between atoms: _228  and  _231
REMARK   96  A    between atoms: _231  and  _232
REMARK   97  A    between atoms: _237  and  _239
REMARK   98  A    between atoms: _239  and  _240
REMARK   99  A    between atoms: _239  and  _242
REMARK  100  A    between atoms: _242  and  _243
REMARK  101  A    between atoms: _246  and  _248
REMARK  102  A    between atoms: _248  and  _249
REMARK  103  A    between atoms: _251  and  _253
REMARK  104  A    between atoms: _253  and  _254
REMARK  105  A    between atoms: _253  and  _256
REMARK  106  A    between atoms: _256  and  _257
REMARK  107  A    between atoms: _262  and  _263
REMARK  108  A    between atoms: _265  and  _267
REMARK  109  A    between atoms: _267  and  _268
REMARK  110  A    between atoms: _267  and  _270
REMARK  111  A    between atoms: _270  and  _271
REMARK  112  A    between atoms: _276  and  _277
REMARK  113  A    between atoms: _279  and  _281
REMARK  114  A    between atoms: _281  and  _282
REMARK  115  A    between atoms: _281  and  _284
REMARK  116  A    between atoms: _284  and  _285
REMARK  117  A    between atoms: _287  and  _289
REMARK  118  A    between atoms: _289  and  _290
REMARK  119  A    between atoms: _289  and  _292
REMARK  120  A    between atoms: _292  and  _293
REMARK                            x       y       z     vdW  Elec       q    Type
REMARK                         _______ _______ _______ _____ _____    ______ ____
ROOT
ATOM      1  C   TYR A   3     -31.647  38.288  26.659  0.00  0.00    +0.241 C 
ATOM      2  N   TYR A   4     -31.198  37.106  26.245  0.00  0.00    -0.297 N 
ATOM      3  H   TYR A   4     -31.303  36.291  26.883  0.00  0.00    +0.150 HD
ATOM      4  O   TYR A   3     -31.544  39.328  26.004  0.00  0.00    -0.273 OA
ENDROOT
BRANCH   2   5
ATOM      5  CA  TYR A   4     -30.567  36.887  24.948  0.00  0.00    +0.153 C 
BRANCH   5   6
ATOM      6  C   TYR A   4     -31.177  35.642  24.311  0.00  0.00    +0.241 C 
ATOM      7  O   TYR A   4     -31.050  34.536  24.845  0.00  0.00    -0.273 OA
ATOM      8  N   SER A   5     -31.859  35.832  23.183  0.00  0.00    -0.295 N 
ATOM      9  H   SER A   5     -31.983  36.800  22.823  0.00  0.00    +0.150 HD
BRANCH   8  10
ATOM     10  CA  SER A   5     -32.439  34.716  22.436  0.00  0.00    +0.178 C 
BRANCH  10  11
ATOM     11  C   SER A   5     -31.341  33.773  21.942  0.00  0.00    +0.243 C 
ATOM     12  N   THR A   6     -31.519  32.479  22.204  0.00  0.00    -0.296 N 
ATOM     13  H   THR A   6     -32.435  32.163  22.581  0.00  0.00    +0.150 HD
ATOM     14  O   SER A   5     -30.351  34.210  21.354  0.00  0.00    -0.273 OA
BRANCH  12  15
ATOM     15  CA  THR A   6     -30.465  31.489  21.978  0.00  0.00    +0.164 C 
BRANCH  15  16
ATOM     16  C   THR A   6     -30.999  30.213  21.325  0.00  0.00    +0.229 C 
ATOM     17  O   THR A   6     -31.872  29.543  21.881  0.00  0.00    -0.286 OA
ENDBRANCH  15  16
BRANCH  15  18
ATOM     18  CB  THR A   6     -29.728  31.154  23.304  0.00  0.00    +0.136 C 
ATOM     19  CG2 THR A   6     -28.625  30.127  23.081  0.00  0.00    +0.034 C 
BRANCH  18  20
ATOM     20  OG1 THR A   6     -29.152  32.351  23.847  0.00  0.00    -0.382 OA
ATOM     21  HG1 THR A   6     -29.869  33.010  24.025  0.00  0.00    +0.210 HD
ENDBRANCH  18  20
ENDBRANCH  15  18
ENDBRANCH  12  15
ENDBRANCH  10  11
BRANCH  10  22
ATOM     22  CB  SER A   5     -33.291  35.229  21.274  0.00  0.00    +0.166 C 
BRANCH  22  23
ATOM     23  OG  SER A   5     -34.370  36.018  21.749  0.00  0.00    -0.380 OA
ATOM     24  H   SER A   5     -34.014  36.794  22.251  0.00  0.00    +0.211 HD
ENDBRANCH  22  23
ENDBRANCH  10  22
ENDBRANCH   8  10
ENDBRANCH   5   6
BRANCH   5  25
ATOM     25  CB  TYR A   4     -29.045  36.730  25.107  0.00  0.00    +0.055 C 
BRANCH  25  26
ATOM     26  CG  TYR A   4     -28.420  37.881  25.863  0.00  0.00    -0.020 A 
ATOM     27  CD2 TYR A   4     -28.269  37.829  27.251  0.00  0.00    -0.001 A 
ATOM     28  CE2 TYR A   4     -27.722  38.898  27.955  0.00  0.00    +0.036 A 
ATOM     29  CZ  TYR A   4     -27.319  40.033  27.270  0.00  0.00    +0.134 A 
ATOM     30  CE1 TYR A   4     -27.461  40.112  25.893  0.00  0.00    +0.036 A 
ATOM     31  CD1 TYR A   4     -28.015  39.040  25.198  0.00  0.00    -0.001 A 
BRANCH  29  32
ATOM     32  OH  TYR A   4     -26.781  41.094  27.963  0.00  0.00    -0.506 OA
ATOM     33  HH  TYR A   4     -25.966  40.796  28.439  0.00  0.00    +0.292 HD
ENDBRANCH  29  32
ENDBRANCH  25  26
ENDBRANCH   5  25
ENDBRANCH   2   5
BRANCH   1  34
ATOM     34  CA  TYR A   3     -32.323  38.283  28.030  0.00  0.00    +0.153 C 
BRANCH  34  37
ATOM     35  C   GLY A   2     -32.441  39.735  29.972  0.00  0.00    +0.243 C 
ATOM     36  O   GLY A   2     -32.219  38.790  30.731  0.00  0.00    -0.273 OA
ATOM     37  N   TYR A   3     -32.466  39.601  28.649  0.00  0.00    -0.297 N 
ATOM     38  H   TYR A   3     -32.588  40.441  28.049  0.00  0.00    +0.150 HD
BRANCH  35  39
ATOM     39  CA  GLY A   2     -32.692  41.120  30.539  0.00  0.00    +0.176 C 
BRANCH  39  42
ATOM     40  C   THR A   1     -33.582  41.734  32.753  0.00  0.00    +0.241 C 
ATOM     41  O   THR A   1     -34.222  42.704  32.339  0.00  0.00    -0.274 OA
ATOM     42  N   GLY A   2     -32.780  40.996  31.991  0.00  0.00    -0.295 N 
ATOM     43  H   GLY A   2     -32.179  40.287  32.458  0.00  0.00    +0.150 HD
BRANCH  40  44
ATOM     44  CA  THR A   1     -33.656  41.314  34.220  0.00  0.00    +0.172 C 
BRANCH  44  45
ATOM     45  N   THR A   1     -34.145  42.402  35.063  0.00  0.00    -0.236 NA
ATOM     46  H   THR A   1     -35.170  42.558  35.149  0.00  0.00    +0.142 HD
ENDBRANCH  44  45
BRANCH  44  47
ATOM     47  CB  THR A   1     -34.525  40.038  34.339  0.00  0.00    +0.135 C 
ATOM     48  CG2 THR A   1     -34.466  39.458  35.755  0.00  0.00    +0.034 C 
BRANCH  47  49
ATOM     49  OG1 THR A   1     -35.883  40.341  33.991  0.00  0.00    -0.383 OA
ATOM     50  HG1 THR A   1     -36.233  41.034  34.605  0.00  0.00    +0.210 HD
ENDBRANCH  47  49
ENDBRANCH  44  47
ENDBRANCH  40  44
ENDBRANCH  39  42
ENDBRANCH  35  39
ENDBRANCH  34  37
BRANCH  34  51
ATOM     51  CB  TYR A   3     -33.686  37.581  27.939  0.00  0.00    +0.055 C 
BRANCH  51  52
ATOM     52  CG  TYR A   3     -34.669  38.260  27.015  0.00  0.00    -0.020 A 
ATOM     53  CD2 TYR A   3     -35.610  39.166  27.507  0.00  0.00    -0.001 A 
ATOM     54  CE2 TYR A   3     -36.517  39.793  26.650  0.00  0.00    +0.036 A 
ATOM     55  CZ  TYR A   3     -36.478  39.504  25.291  0.00  0.00    +0.134 A 
ATOM     56  CE1 TYR A   3     -35.557  38.609  24.790  0.00  0.00    +0.036 A 
ATOM     57  CD1 TYR A   3     -34.659  37.994  25.646  0.00  0.00    -0.001 A 
BRANCH  55  58
ATOM     58  OH  TYR A   3     -37.360  40.100  24.422  0.00  0.00    -0.506 OA
ATOM     59  HH  TYR A   3     -37.185  39.777  23.503  0.00  0.00    +0.292 HD
ENDBRANCH  55  58
ENDBRANCH  51  52
ENDBRANCH  34  51
ENDBRANCH   1  34
TORSDOF 24
REMARK  Name = ../refined-set-2016/3tay/3tay_pocket.pdb
REMARK  120 active torsions:
REMARK  status: ('A' for Active; 'I' for Inactive)
REMARK    1  A    between atoms: _1  and  _3
REMARK    2  A    between atoms: _3  and  _4
REMARK    3  A    between atoms: _3  and  _6
REMARK    4  A    between atoms: _6  and  _7
REMARK    5  A    between atoms: _10  and  _12
REMARK    6  A    between atoms: _12  and  _13
REMARK    7  A    between atoms: _12  and  _15
REMARK    8  A    between atoms: _15  and  _16
REMARK    9  A    between atoms: _16  and  _17
REMARK   10  A    between atoms: _17  and  _18
REMARK   11  A    between atoms: _27  and  _29
REMARK   12  A    between atoms: _29  and  _30
REMARK   13  A    between atoms: _29  and  _32
REMARK   14  A    between atoms: _32  and  _33
REMARK   15  A    between atoms: _43  and  _45
REMARK   16  A    between atoms: _45  and  _46
REMARK   17  A    between atoms: _45  and  _48
REMARK   18  A    between atoms: _48  and  _49
REMARK   19  A    between atoms: _52  and  _54
REMARK   20  A    between atoms: _54  and  _55
REMARK   21  A    between atoms: _54  and  _57
REMARK   22  A    between atoms: _57  and  _58
REMARK   23  A    between atoms: _61  and  _63
REMARK   24  A    between atoms: _63  and  _64
REMARK   25  A    between atoms: _63  and  _66
REMARK   26  A    between atoms: _69  and  _71
REMARK   27  A    between atoms: _71  and  _72
REMARK   28  A    between atoms: _71  and  _74
REMARK   29  A    between atoms: _74  and  _75
REMARK   30  A    between atoms: _77  and  _79
REMARK   31  A    between atoms: _79  and  _80
REMARK   32  A    between atoms: _79  and  _82
REMARK   33  A    between atoms: _82  and  _83
REMARK   34  A    between atoms: _83  and  _84
REMARK   35  A    between atoms: _84  and  _85
REMARK   36  A    between atoms: _85  and  _86
REMARK   37  A    between atoms: _90  and  _92
REMARK   38  A    between atoms: _92  and  _93
REMARK   39  A    between atoms: _92  and  _95
REMARK   40  A    between atoms: _95  and  _96
REMARK   41  A    between atoms: _99  and  _101
REMARK   42  A    between atoms: _101  and  _102
REMARK   43  A    between atoms: _101  and  _104
REMARK   44  A    between atoms: _104  and  _105
REMARK   45  A    between atoms: _108  and  _110
REMARK   46  A    between atoms: _110  and  _111
REMARK   47  A    between atoms: _110  and  _113
REMARK   48  A    between atoms: _113  and  _114
REMARK   49  A    between atoms: _114  and  _115
REMARK   50  A    between atoms: _120  and  _122
REMARK   51  A    between atoms: _122  and  _123
REMARK   52  A    between atoms: _122  and  _125
REMARK   53  A    between atoms: _125  and  _126
REMARK   54  A    between atoms: _131  and  _133
REMARK   55  A    between atoms: _133  and  _134
REMARK   56  A    between atoms: _134  and  _135
REMARK   57  A    between atoms: _134  and  _136
REMARK   58  A    between atoms: _136  and  _138
REMARK   59  A    between atoms: _138  and  _139
REMARK   60  A    between atoms: _138  and  _141
REMARK   61  A    between atoms: _141  and  _142
REMARK   62  A    between atoms: _144  and  _146
REMARK   63  A    between atoms: _146  and  _147
REMARK   64  A    between atoms: _146  and  _149
REMARK   65  A    between atoms: _149  and  _150
REMARK   66  A    between atoms: _155  and  _156
REMARK   67  A    between atoms: _158  and  _160
REMARK   68  A    between atoms: _160  and  _161
REMARK   69  A    between atoms: _163  and  _165
REMARK   70  A    between atoms: _165  and  _166
REMARK   71  A    between atoms: _165  and  _168
REMARK   72  A    between atoms: _168  and  _169
REMARK   73  A    between atoms: _169  and  _170
REMARK   74  A    between atoms: _170  and  _171
REMARK   75  A    between atoms: _180  and  _182
REMARK   76  A    between atoms: _182  and  _183
REMARK   77  A    between atoms: _182  and  _185
REMARK   78  A    between atoms: _185  and  _186
REMARK   79  A    between atoms: _189  and  _191
REMARK   80  A    between atoms: _191  and  _192
REMARK   81  A    between atoms: _191  and  _194
REMARK   82  A    between atoms: _194  and  _195
REMARK   83  A    between atoms: _200  and  _201
REMARK   84  A    between atoms: _203  and  _205
REMARK   85  A    between atoms: _205  and  _206
REMARK   86  A    between atoms: _205  and  _208
REMARK   87  A    between atoms: _208  and  _209
REMARK   88  A    between atoms: _212  and  _214
REMARK   89  A    between atoms: _214  and  _215
REMARK   90  A    between atoms: _214  and  _217
REMARK   91  A    between atoms: _217  and  _218
REMARK   92  A    between atoms: _223  and  _224
REMARK   93  A    between atoms: _226  and  _228
REMARK   94  A    between atoms: _228  and  _229
REMARK   95  A    between atoms: _228  and  _231
REMARK   96  A    between atoms: _231  and  _232
REMARK   97  A    between atoms: _237  and  _239
REMARK   98  A    between atoms: _239  and  _240
REMARK   99  A    between atoms: _239  and  _242
REMARK  100  A    between atoms: _242  and  _243
REMARK  101  A    between atoms: _246  and  _248
REMARK  102  A    between atoms: _248  and  _249
REMARK  103  A    between atoms: _251  and  _253
REMARK  104  A    between atoms: _253  and  _254
REMARK  105  A    between atoms: _253  and  _256
REMARK  106  A    between atoms: _256  and  _257
REMARK  107  A    between atoms: _262  and  _263
REMARK  108  A    between atoms: _265  and  _267
REMARK  109  A    between atoms: _267  and  _268
REMARK  110  A    between atoms: _267  and  _270
REMARK  111  A    between atoms: _270  and  _271
REMARK  112  A    between atoms: _276  and  _277
REMARK  113  A    between atoms: _279  and  _281
REMARK  114  A    between atoms: _281  and  _282
REMARK  115  A    between atoms: _281  and  _284
REMARK  116  A    between atoms: _284  and  _285
REMARK  117  A    between atoms: _287  and  _289
REMARK  118  A    between atoms: _289  and  _290
REMARK  119  A    between atoms: _289  and  _292
REMARK  120  A    between atoms: _292  and  _293
REMARK                            x       y       z     vdW  Elec       q    Type
REMARK                         _______ _______ _______ _____ _____    ______ ____
ROOT
ATOM      1  O   HOH     1     -36.884  35.097  22.134  0.00  0.00    +0.000 OA
ENDROOT
TORSDOF 0
REMARK  Name = ../refined-set-2016/3tay/3tay_pocket.pdb
REMARK  120 active torsions:
REMARK  status: ('A' for Active; 'I' for Inactive)
REMARK    1  A    between atoms: _1  and  _3
REMARK    2  A    between atoms: _3  and  _4
REMARK    3  A    between atoms: _3  and  _6
REMARK    4  A    between atoms: _6  and  _7
REMARK    5  A    between atoms: _10  and  _12
REMARK    6  A    between atoms: _12  and  _13
REMARK    7  A    between atoms: _12  and  _15
REMARK    8  A    between atoms: _15  and  _16
REMARK    9  A    between atoms: _16  and  _17
REMARK   10  A    between atoms: _17  and  _18
REMARK   11  A    between atoms: _27  and  _29
REMARK   12  A    between atoms: _29  and  _30
REMARK   13  A    between atoms: _29  and  _32
REMARK   14  A    between atoms: _32  and  _33
REMARK   15  A    between atoms: _43  and  _45
REMARK   16  A    between atoms: _45  and  _46
REMARK   17  A    between atoms: _45  and  _48
REMARK   18  A    between atoms: _48  and  _49
REMARK   19  A    between atoms: _52  and  _54
REMARK   20  A    between atoms: _54  and  _55
REMARK   21  A    between atoms: _54  and  _57
REMARK   22  A    between atoms: _57  and  _58
REMARK   23  A    between atoms: _61  and  _63
REMARK   24  A    between atoms: _63  and  _64
REMARK   25  A    between atoms: _63  and  _66
REMARK   26  A    between atoms: _69  and  _71
REMARK   27  A    between atoms: _71  and  _72
REMARK   28  A    between atoms: _71  and  _74
REMARK   29  A    between atoms: _74  and  _75
REMARK   30  A    between atoms: _77  and  _79
REMARK   31  A    between atoms: _79  and  _80
REMARK   32  A    between atoms: _79  and  _82
REMARK   33  A    between atoms: _82  and  _83
REMARK   34  A    between atoms: _83  and  _84
REMARK   35  A    between atoms: _84  and  _85
REMARK   36  A    between atoms: _85  and  _86
REMARK   37  A    between atoms: _90  and  _92
REMARK   38  A    between atoms: _92  and  _93
REMARK   39  A    between atoms: _92  and  _95
REMARK   40  A    between atoms: _95  and  _96
REMARK   41  A    between atoms: _99  and  _101
REMARK   42  A    between atoms: _101  and  _102
REMARK   43  A    between atoms: _101  and  _104
REMARK   44  A    between atoms: _104  and  _105
REMARK   45  A    between atoms: _108  and  _110
REMARK   46  A    between atoms: _110  and  _111
REMARK   47  A    between atoms: _110  and  _113
REMARK   48  A    between atoms: _113  and  _114
REMARK   49  A    between atoms: _114  and  _115
REMARK   50  A    between atoms: _120  and  _122
REMARK   51  A    between atoms: _122  and  _123
REMARK   52  A    between atoms: _122  and  _125
REMARK   53  A    between atoms: _125  and  _126
REMARK   54  A    between atoms: _131  and  _133
REMARK   55  A    between atoms: _133  and  _134
REMARK   56  A    between atoms: _134  and  _135
REMARK   57  A    between atoms: _134  and  _136
REMARK   58  A    between atoms: _136  and  _138
REMARK   59  A    between atoms: _138  and  _139
REMARK   60  A    between atoms: _138  and  _141
REMARK   61  A    between atoms: _141  and  _142
REMARK   62  A    between atoms: _144  and  _146
REMARK   63  A    between atoms: _146  and  _147
REMARK   64  A    between atoms: _146  and  _149
REMARK   65  A    between atoms: _149  and  _150
REMARK   66  A    between atoms: _155  and  _156
REMARK   67  A    between atoms: _158  and  _160
REMARK   68  A    between atoms: _160  and  _161
REMARK   69  A    between atoms: _163  and  _165
REMARK   70  A    between atoms: _165  and  _166
REMARK   71  A    between atoms: _165  and  _168
REMARK   72  A    between atoms: _168  and  _169
REMARK   73  A    between atoms: _169  and  _170
REMARK   74  A    between atoms: _170  and  _171
REMARK   75  A    between atoms: _180  and  _182
REMARK   76  A    between atoms: _182  and  _183
REMARK   77  A    between atoms: _182  and  _185
REMARK   78  A    between atoms: _185  and  _186
REMARK   79  A    between atoms: _189  and  _191
REMARK   80  A    between atoms: _191  and  _192
REMARK   81  A    between atoms: _191  and  _194
REMARK   82  A    between atoms: _194  and  _195
REMARK   83  A    between atoms: _200  and  _201
REMARK   84  A    between atoms: _203  and  _205
REMARK   85  A    between atoms: _205  and  _206
REMARK   86  A    between atoms: _205  and  _208
REMARK   87  A    between atoms: _208  and  _209
REMARK   88  A    between atoms: _212  and  _214
REMARK   89  A    between atoms: _214  and  _215
REMARK   90  A    between atoms: _214  and  _217
REMARK   91  A    between atoms: _217  and  _218
REMARK   92  A    between atoms: _223  and  _224
REMARK   93  A    between atoms: _226  and  _228
REMARK   94  A    between atoms: _228  and  _229
REMARK   95  A    between atoms: _228  and  _231
REMARK   96  A    between atoms: _231  and  _232
REMARK   97  A    between atoms: _237  and  _239
REMARK   98  A    between atoms: _239  and  _240
REMARK   99  A    between atoms: _239  and  _242
REMARK  100  A    between atoms: _242  and  _243
REMARK  101  A    between atoms: _246  and  _248
REMARK  102  A    between atoms: _248  and  _249
REMARK  103  A    between atoms: _251  and  _253
REMARK  104  A    between atoms: _253  and  _254
REMARK  105  A    between atoms: _253  and  _256
REMARK  106  A    between atoms: _256  and  _257
REMARK  107  A    between atoms: _262  and  _263
REMARK  108  A    between atoms: _265  and  _267
REMARK  109  A    between atoms: _267  and  _268
REMARK  110  A    between atoms: _267  and  _270
REMARK  111  A    between atoms: _270  and  _271
REMARK  112  A    between atoms: _276  and  _277
REMARK  113  A    between atoms: _279  and  _281
REMARK  114  A    between atoms: _281  and  _282
REMARK  115  A    between atoms: _281  and  _284
REMARK  116  A    between atoms: _284  and  _285
REMARK  117  A    between atoms: _287  and  _289
REMARK  118  A    between atoms: _289  and  _290
REMARK  119  A    between atoms: _289  and  _292
REMARK  120  A    between atoms: _292  and  _293
REMARK                            x       y       z     vdW  Elec       q    Type
REMARK                         _______ _______ _______ _____ _____    ______ ____
ROOT
ATOM      1  O   HOH     1     -33.432  42.394  27.562  0.00  0.00    +0.000 OA
ENDROOT
TORSDOF 0
REMARK  Name = ../refined-set-2016/3tay/3tay_pocket.pdb
REMARK  120 active torsions:
REMARK  status: ('A' for Active; 'I' for Inactive)
REMARK    1  A    between atoms: _1  and  _3
REMARK    2  A    between atoms: _3  and  _4
REMARK    3  A    between atoms: _3  and  _6
REMARK    4  A    between atoms: _6  and  _7
REMARK    5  A    between atoms: _10  and  _12
REMARK    6  A    between atoms: _12  and  _13
REMARK    7  A    between atoms: _12  and  _15
REMARK    8  A    between atoms: _15  and  _16
REMARK    9  A    between atoms: _16  and  _17
REMARK   10  A    between atoms: _17  and  _18
REMARK   11  A    between atoms: _27  and  _29
REMARK   12  A    between atoms: _29  and  _30
REMARK   13  A    between atoms: _29  and  _32
REMARK   14  A    between atoms: _32  and  _33
REMARK   15  A    between atoms: _43  and  _45
REMARK   16  A    between atoms: _45  and  _46
REMARK   17  A    between atoms: _45  and  _48
REMARK   18  A    between atoms: _48  and  _49
REMARK   19  A    between atoms: _52  and  _54
REMARK   20  A    between atoms: _54  and  _55
REMARK   21  A    between atoms: _54  and  _57
REMARK   22  A    between atoms: _57  and  _58
REMARK   23  A    between atoms: _61  and  _63
REMARK   24  A    between atoms: _63  and  _64
REMARK   25  A    between atoms: _63  and  _66
REMARK   26  A    between atoms: _69  and  _71
REMARK   27  A    between atoms: _71  and  _72
REMARK   28  A    between atoms: _71  and  _74
REMARK   29  A    between atoms: _74  and  _75
REMARK   30  A    between atoms: _77  and  _79
REMARK   31  A    between atoms: _79  and  _80
REMARK   32  A    between atoms: _79  and  _82
REMARK   33  A    between atoms: _82  and  _83
REMARK   34  A    between atoms: _83  and  _84
REMARK   35  A    between atoms: _84  and  _85
REMARK   36  A    between atoms: _85  and  _86
REMARK   37  A    between atoms: _90  and  _92
REMARK   38  A    between atoms: _92  and  _93
REMARK   39  A    between atoms: _92  and  _95
REMARK   40  A    between atoms: _95  and  _96
REMARK   41  A    between atoms: _99  and  _101
REMARK   42  A    between atoms: _101  and  _102
REMARK   43  A    between atoms: _101  and  _104
REMARK   44  A    between atoms: _104  and  _105
REMARK   45  A    between atoms: _108  and  _110
REMARK   46  A    between atoms: _110  and  _111
REMARK   47  A    between atoms: _110  and  _113
REMARK   48  A    between atoms: _113  and  _114
REMARK   49  A    between atoms: _114  and  _115
REMARK   50  A    between atoms: _120  and  _122
REMARK   51  A    between atoms: _122  and  _123
REMARK   52  A    between atoms: _122  and  _125
REMARK   53  A    between atoms: _125  and  _126
REMARK   54  A    between atoms: _131  and  _133
REMARK   55  A    between atoms: _133  and  _134
REMARK   56  A    between atoms: _134  and  _135
REMARK   57  A    between atoms: _134  and  _136
REMARK   58  A    between atoms: _136  and  _138
REMARK   59  A    between atoms: _138  and  _139
REMARK   60  A    between atoms: _138  and  _141
REMARK   61  A    between atoms: _141  and  _142
REMARK   62  A    between atoms: _144  and  _146
REMARK   63  A    between atoms: _146  and  _147
REMARK   64  A    between atoms: _146  and  _149
REMARK   65  A    between atoms: _149  and  _150
REMARK   66  A    between atoms: _155  and  _156
REMARK   67  A    between atoms: _158  and  _160
REMARK   68  A    between atoms: _160  and  _161
REMARK   69  A    between atoms: _163  and  _165
REMARK   70  A    between atoms: _165  and  _166
REMARK   71  A    between atoms: _165  and  _168
REMARK   72  A    between atoms: _168  and  _169
REMARK   73  A    between atoms: _169  and  _170
REMARK   74  A    between atoms: _170  and  _171
REMARK   75  A    between atoms: _180  and  _182
REMARK   76  A    between atoms: _182  and  _183
REMARK   77  A    between atoms: _182  and  _185
REMARK   78  A    between atoms: _185  and  _186
REMARK   79  A    between atoms: _189  and  _191
REMARK   80  A    between atoms: _191  and  _192
REMARK   81  A    between atoms: _191  and  _194
REMARK   82  A    between atoms: _194  and  _195
REMARK   83  A    between atoms: _200  and  _201
REMARK   84  A    between atoms: _203  and  _205
REMARK   85  A    between atoms: _205  and  _206
REMARK   86  A    between atoms: _205  and  _208
REMARK   87  A    between atoms: _208  and  _209
REMARK   88  A    between atoms: _212  and  _214
REMARK   89  A    between atoms: _214  and  _215
REMARK   90  A    between atoms: _214  and  _217
REMARK   91  A    between atoms: _217  and  _218
REMARK   92  A    between atoms: _223  and  _224
REMARK   93  A    between atoms: _226  and  _228
REMARK   94  A    between atoms: _228  and  _229
REMARK   95  A    between atoms: _228  and  _231
REMARK   96  A    between atoms: _231  and  _232
REMARK   97  A    between atoms: _237  and  _239
REMARK   98  A    between atoms: _239  and  _240
REMARK   99  A    between atoms: _239  and  _242
REMARK  100  A    between atoms: _242  and  _243
REMARK  101  A    between atoms: _246  and  _248
REMARK  102  A    between atoms: _248  and  _249
REMARK  103  A    between atoms: _251  and  _253
REMARK  104  A    between atoms: _253  and  _254
REMARK  105  A    between atoms: _253  and  _256
REMARK  106  A    between atoms: _256  and  _257
REMARK  107  A    between atoms: _262  and  _263
REMARK  108  A    between atoms: _265  and  _267
REMARK  109  A    between atoms: _267  and  _268
REMARK  110  A    between atoms: _267  and  _270
REMARK  111  A    between atoms: _270  and  _271
REMARK  112  A    between atoms: _276  and  _277
REMARK  113  A    between atoms: _279  and  _281
REMARK  114  A    between atoms: _281  and  _282
REMARK  115  A    between atoms: _281  and  _284
REMARK  116  A    between atoms: _284  and  _285
REMARK  117  A    between atoms: _287  and  _289
REMARK  118  A    between atoms: _289  and  _290
REMARK  119  A    between atoms: _289  and  _292
REMARK  120  A    between atoms: _292  and  _293
REMARK                            x       y       z     vdW  Elec       q    Type
REMARK                         _______ _______ _______ _____ _____    ______ ____
ROOT
ATOM      1  O   HOH     1     -24.993  36.125  29.389  0.00  0.00    +0.000 OA
ENDROOT
TORSDOF 0
REMARK  Name = ../refined-set-2016/3tay/3tay_pocket.pdb
REMARK  120 active torsions:
REMARK  status: ('A' for Active; 'I' for Inactive)
REMARK    1  A    between atoms: _1  and  _3
REMARK    2  A    between atoms: _3  and  _4
REMARK    3  A    between atoms: _3  and  _6
REMARK    4  A    between atoms: _6  and  _7
REMARK    5  A    between atoms: _10  and  _12
REMARK    6  A    between atoms: _12  and  _13
REMARK    7  A    between atoms: _12  and  _15
REMARK    8  A    between atoms: _15  and  _16
REMARK    9  A    between atoms: _16  and  _17
REMARK   10  A    between atoms: _17  and  _18
REMARK   11  A    between atoms: _27  and  _29
REMARK   12  A    between atoms: _29  and  _30
REMARK   13  A    between atoms: _29  and  _32
REMARK   14  A    between atoms: _32  and  _33
REMARK   15  A    between atoms: _43  and  _45
REMARK   16  A    between atoms: _45  and  _46
REMARK   17  A    between atoms: _45  and  _48
REMARK   18  A    between atoms: _48  and  _49
REMARK   19  A    between atoms: _52  and  _54
REMARK   20  A    between atoms: _54  and  _55
REMARK   21  A    between atoms: _54  and  _57
REMARK   22  A    between atoms: _57  and  _58
REMARK   23  A    between atoms: _61  and  _63
REMARK   24  A    between atoms: _63  and  _64
REMARK   25  A    between atoms: _63  and  _66
REMARK   26  A    between atoms: _69  and  _71
REMARK   27  A    between atoms: _71  and  _72
REMARK   28  A    between atoms: _71  and  _74
REMARK   29  A    between atoms: _74  and  _75
REMARK   30  A    between atoms: _77  and  _79
REMARK   31  A    between atoms: _79  and  _80
REMARK   32  A    between atoms: _79  and  _82
REMARK   33  A    between atoms: _82  and  _83
REMARK   34  A    between atoms: _83  and  _84
REMARK   35  A    between atoms: _84  and  _85
REMARK   36  A    between atoms: _85  and  _86
REMARK   37  A    between atoms: _90  and  _92
REMARK   38  A    between atoms: _92  and  _93
REMARK   39  A    between atoms: _92  and  _95
REMARK   40  A    between atoms: _95  and  _96
REMARK   41  A    between atoms: _99  and  _101
REMARK   42  A    between atoms: _101  and  _102
REMARK   43  A    between atoms: _101  and  _104
REMARK   44  A    between atoms: _104  and  _105
REMARK   45  A    between atoms: _108  and  _110
REMARK   46  A    between atoms: _110  and  _111
REMARK   47  A    between atoms: _110  and  _113
REMARK   48  A    between atoms: _113  and  _114
REMARK   49  A    between atoms: _114  and  _115
REMARK   50  A    between atoms: _120  and  _122
REMARK   51  A    between atoms: _122  and  _123
REMARK   52  A    between atoms: _122  and  _125
REMARK   53  A    between atoms: _125  and  _126
REMARK   54  A    between atoms: _131  and  _133
REMARK   55  A    between atoms: _133  and  _134
REMARK   56  A    between atoms: _134  and  _135
REMARK   57  A    between atoms: _134  and  _136
REMARK   58  A    between atoms: _136  and  _138
REMARK   59  A    between atoms: _138  and  _139
REMARK   60  A    between atoms: _138  and  _141
REMARK   61  A    between atoms: _141  and  _142
REMARK   62  A    between atoms: _144  and  _146
REMARK   63  A    between atoms: _146  and  _147
REMARK   64  A    between atoms: _146  and  _149
REMARK   65  A    between atoms: _149  and  _150
REMARK   66  A    between atoms: _155  and  _156
REMARK   67  A    between atoms: _158  and  _160
REMARK   68  A    between atoms: _160  and  _161
REMARK   69  A    between atoms: _163  and  _165
REMARK   70  A    between atoms: _165  and  _166
REMARK   71  A    between atoms: _165  and  _168
REMARK   72  A    between atoms: _168  and  _169
REMARK   73  A    between atoms: _169  and  _170
REMARK   74  A    between atoms: _170  and  _171
REMARK   75  A    between atoms: _180  and  _182
REMARK   76  A    between atoms: _182  and  _183
REMARK   77  A    between atoms: _182  and  _185
REMARK   78  A    between atoms: _185  and  _186
REMARK   79  A    between atoms: _189  and  _191
REMARK   80  A    between atoms: _191  and  _192
REMARK   81  A    between atoms: _191  and  _194
REMARK   82  A    between atoms: _194  and  _195
REMARK   83  A    between atoms: _200  and  _201
REMARK   84  A    between atoms: _203  and  _205
REMARK   85  A    between atoms: _205  and  _206
REMARK   86  A    between atoms: _205  and  _208
REMARK   87  A    between atoms: _208  and  _209
REMARK   88  A    between atoms: _212  and  _214
REMARK   89  A    between atoms: _214  and  _215
REMARK   90  A    between atoms: _214  and  _217
REMARK   91  A    between atoms: _217  and  _218
REMARK   92  A    between atoms: _223  and  _224
REMARK   93  A    between atoms: _226  and  _228
REMARK   94  A    between atoms: _228  and  _229
REMARK   95  A    between atoms: _228  and  _231
REMARK   96  A    between atoms: _231  and  _232
REMARK   97  A    between atoms: _237  and  _239
REMARK   98  A    between atoms: _239  and  _240
REMARK   99  A    between atoms: _239  and  _242
REMARK  100  A    between atoms: _242  and  _243
REMARK  101  A    between atoms: _246  and  _248
REMARK  102  A    between atoms: _248  and  _249
REMARK  103  A    between atoms: _251  and  _253
REMARK  104  A    between atoms: _253  and  _254
REMARK  105  A    between atoms: _253  and  _256
REMARK  106  A    between atoms: _256  and  _257
REMARK  107  A    between atoms: _262  and  _263
REMARK  108  A    between atoms: _265  and  _267
REMARK  109  A    between atoms: _267  and  _268
REMARK  110  A    between atoms: _267  and  _270
REMARK  111  A    between atoms: _270  and  _271
REMARK  112  A    between atoms: _276  and  _277
REMARK  113  A    between atoms: _279  and  _281
REMARK  114  A    between atoms: _281  and  _282
REMARK  115  A    between atoms: _281  and  _284
REMARK  116  A    between atoms: _284  and  _285
REMARK  117  A    between atoms: _287  and  _289
REMARK  118  A    between atoms: _289  and  _290
REMARK  119  A    between atoms: _289  and  _292
REMARK  120  A    between atoms: _292  and  _293
REMARK                            x       y       z     vdW  Elec       q    Type
REMARK                         _______ _______ _______ _____ _____    ______ ____
ROOT
ATOM      1  O   HOH     1     -25.399  43.622  18.795  0.00  0.00    +0.000 OA
ENDROOT
TORSDOF 0
REMARK  Name = ../refined-set-2016/3tay/3tay_pocket.pdb
REMARK  120 active torsions:
REMARK  status: ('A' for Active; 'I' for Inactive)
REMARK    1  A    between atoms: _1  and  _3
REMARK    2  A    between atoms: _3  and  _4
REMARK    3  A    between atoms: _3  and  _6
REMARK    4  A    between atoms: _6  and  _7
REMARK    5  A    between atoms: _10  and  _12
REMARK    6  A    between atoms: _12  and  _13
REMARK    7  A    between atoms: _12  and  _15
REMARK    8  A    between atoms: _15  and  _16
REMARK    9  A    between atoms: _16  and  _17
REMARK   10  A    between atoms: _17  and  _18
REMARK   11  A    between atoms: _27  and  _29
REMARK   12  A    between atoms: _29  and  _30
REMARK   13  A    between atoms: _29  and  _32
REMARK   14  A    between atoms: _32  and  _33
REMARK   15  A    between atoms: _43  and  _45
REMARK   16  A    between atoms: _45  and  _46
REMARK   17  A    between atoms: _45  and  _48
REMARK   18  A    between atoms: _48  and  _49
REMARK   19  A    between atoms: _52  and  _54
REMARK   20  A    between atoms: _54  and  _55
REMARK   21  A    between atoms: _54  and  _57
REMARK   22  A    between atoms: _57  and  _58
REMARK   23  A    between atoms: _61  and  _63
REMARK   24  A    between atoms: _63  and  _64
REMARK   25  A    between atoms: _63  and  _66
REMARK   26  A    between atoms: _69  and  _71
REMARK   27  A    between atoms: _71  and  _72
REMARK   28  A    between atoms: _71  and  _74
REMARK   29  A    between atoms: _74  and  _75
REMARK   30  A    between atoms: _77  and  _79
REMARK   31  A    between atoms: _79  and  _80
REMARK   32  A    between atoms: _79  and  _82
REMARK   33  A    between atoms: _82  and  _83
REMARK   34  A    between atoms: _83  and  _84
REMARK   35  A    between atoms: _84  and  _85
REMARK   36  A    between atoms: _85  and  _86
REMARK   37  A    between atoms: _90  and  _92
REMARK   38  A    between atoms: _92  and  _93
REMARK   39  A    between atoms: _92  and  _95
REMARK   40  A    between atoms: _95  and  _96
REMARK   41  A    between atoms: _99  and  _101
REMARK   42  A    between atoms: _101  and  _102
REMARK   43  A    between atoms: _101  and  _104
REMARK   44  A    between atoms: _104  and  _105
REMARK   45  A    between atoms: _108  and  _110
REMARK   46  A    between atoms: _110  and  _111
REMARK   47  A    between atoms: _110  and  _113
REMARK   48  A    between atoms: _113  and  _114
REMARK   49  A    between atoms: _114  and  _115
REMARK   50  A    between atoms: _120  and  _122
REMARK   51  A    between atoms: _122  and  _123
REMARK   52  A    between atoms: _122  and  _125
REMARK   53  A    between atoms: _125  and  _126
REMARK   54  A    between atoms: _131  and  _133
REMARK   55  A    between atoms: _133  and  _134
REMARK   56  A    between atoms: _134  and  _135
REMARK   57  A    between atoms: _134  and  _136
REMARK   58  A    between atoms: _136  and  _138
REMARK   59  A    between atoms: _138  and  _139
REMARK   60  A    between atoms: _138  and  _141
REMARK   61  A    between atoms: _141  and  _142
REMARK   62  A    between atoms: _144  and  _146
REMARK   63  A    between atoms: _146  and  _147
REMARK   64  A    between atoms: _146  and  _149
REMARK   65  A    between atoms: _149  and  _150
REMARK   66  A    between atoms: _155  and  _156
REMARK   67  A    between atoms: _158  and  _160
REMARK   68  A    between atoms: _160  and  _161
REMARK   69  A    between atoms: _163  and  _165
REMARK   70  A    between atoms: _165  and  _166
REMARK   71  A    between atoms: _165  and  _168
REMARK   72  A    between atoms: _168  and  _169
REMARK   73  A    between atoms: _169  and  _170
REMARK   74  A    between atoms: _170  and  _171
REMARK   75  A    between atoms: _180  and  _182
REMARK   76  A    between atoms: _182  and  _183
REMARK   77  A    between atoms: _182  and  _185
REMARK   78  A    between atoms: _185  and  _186
REMARK   79  A    between atoms: _189  and  _191
REMARK   80  A    between atoms: _191  and  _192
REMARK   81  A    between atoms: _191  and  _194
REMARK   82  A    between atoms: _194  and  _195
REMARK   83  A    between atoms: _200  and  _201
REMARK   84  A    between atoms: _203  and  _205
REMARK   85  A    between atoms: _205  and  _206
REMARK   86  A    between atoms: _205  and  _208
REMARK   87  A    between atoms: _208  and  _209
REMARK   88  A    between atoms: _212  and  _214
REMARK   89  A    between atoms: _214  and  _215
REMARK   90  A    between atoms: _214  and  _217
REMARK   91  A    between atoms: _217  and  _218
REMARK   92  A    between atoms: _223  and  _224
REMARK   93  A    between atoms: _226  and  _228
REMARK   94  A    between atoms: _228  and  _229
REMARK   95  A    between atoms: _228  and  _231
REMARK   96  A    between atoms: _231  and  _232
REMARK   97  A    between atoms: _237  and  _239
REMARK   98  A    between atoms: _239  and  _240
REMARK   99  A    between atoms: _239  and  _242
REMARK  100  A    between atoms: _242  and  _243
REMARK  101  A    between atoms: _246  and  _248
REMARK  102  A    between atoms: _248  and  _249
REMARK  103  A    between atoms: _251  and  _253
REMARK  104  A    between atoms: _253  and  _254
REMARK  105  A    between atoms: _253  and  _256
REMARK  106  A    between atoms: _256  and  _257
REMARK  107  A    between atoms: _262  and  _263
REMARK  108  A    between atoms: _265  and  _267
REMARK  109  A    between atoms: _267  and  _268
REMARK  110  A    between atoms: _267  and  _270
REMARK  111  A    between atoms: _270  and  _271
REMARK  112  A    between atoms: _276  and  _277
REMARK  113  A    between atoms: _279  and  _281
REMARK  114  A    between atoms: _281  and  _282
REMARK  115  A    between atoms: _281  and  _284
REMARK  116  A    between atoms: _284  and  _285
REMARK  117  A    between atoms: _287  and  _289
REMARK  118  A    between atoms: _289  and  _290
REMARK  119  A    between atoms: _289  and  _292
REMARK  120  A    between atoms: _292  and  _293
REMARK                            x       y       z     vdW  Elec       q    Type
REMARK                         _______ _______ _______ _____ _____    ______ ____
ROOT
ATOM      1  O   HOH     1     -30.197  48.586  31.488  0.00  0.00    +0.000 OA
ENDROOT
TORSDOF 0
REMARK  Name = ../refined-set-2016/3tay/3tay_pocket.pdb
REMARK  120 active torsions:
REMARK  status: ('A' for Active; 'I' for Inactive)
REMARK    1  A    between atoms: _1  and  _3
REMARK    2  A    between atoms: _3  and  _4
REMARK    3  A    between atoms: _3  and  _6
REMARK    4  A    between atoms: _6  and  _7
REMARK    5  A    between atoms: _10  and  _12
REMARK    6  A    between atoms: _12  and  _13
REMARK    7  A    between atoms: _12  and  _15
REMARK    8  A    between atoms: _15  and  _16
REMARK    9  A    between atoms: _16  and  _17
REMARK   10  A    between atoms: _17  and  _18
REMARK   11  A    between atoms: _27  and  _29
REMARK   12  A    between atoms: _29  and  _30
REMARK   13  A    between atoms: _29  and  _32
REMARK   14  A    between atoms: _32  and  _33
REMARK   15  A    between atoms: _43  and  _45
REMARK   16  A    between atoms: _45  and  _46
REMARK   17  A    between atoms: _45  and  _48
REMARK   18  A    between atoms: _48  and  _49
REMARK   19  A    between atoms: _52  and  _54
REMARK   20  A    between atoms: _54  and  _55
REMARK   21  A    between atoms: _54  and  _57
REMARK   22  A    between atoms: _57  and  _58
REMARK   23  A    between atoms: _61  and  _63
REMARK   24  A    between atoms: _63  and  _64
REMARK   25  A    between atoms: _63  and  _66
REMARK   26  A    between atoms: _69  and  _71
REMARK   27  A    between atoms: _71  and  _72
REMARK   28  A    between atoms: _71  and  _74
REMARK   29  A    between atoms: _74  and  _75
REMARK   30  A    between atoms: _77  and  _79
REMARK   31  A    between atoms: _79  and  _80
REMARK   32  A    between atoms: _79  and  _82
REMARK   33  A    between atoms: _82  and  _83
REMARK   34  A    between atoms: _83  and  _84
REMARK   35  A    between atoms: _84  and  _85
REMARK   36  A    between atoms: _85  and  _86
REMARK   37  A    between atoms: _90  and  _92
REMARK   38  A    between atoms: _92  and  _93
REMARK   39  A    between atoms: _92  and  _95
REMARK   40  A    between atoms: _95  and  _96
REMARK   41  A    between atoms: _99  and  _101
REMARK   42  A    between atoms: _101  and  _102
REMARK   43  A    between atoms: _101  and  _104
REMARK   44  A    between atoms: _104  and  _105
REMARK   45  A    between atoms: _108  and  _110
REMARK   46  A    between atoms: _110  and  _111
REMARK   47  A    between atoms: _110  and  _113
REMARK   48  A    between atoms: _113  and  _114
REMARK   49  A    between atoms: _114  and  _115
REMARK   50  A    between atoms: _120  and  _122
REMARK   51  A    between atoms: _122  and  _123
REMARK   52  A    between atoms: _122  and  _125
REMARK   53  A    between atoms: _125  and  _126
REMARK   54  A    between atoms: _131  and  _133
REMARK   55  A    between atoms: _133  and  _134
REMARK   56  A    between atoms: _134  and  _135
REMARK   57  A    between atoms: _134  and  _136
REMARK   58  A    between atoms: _136  and  _138
REMARK   59  A    between atoms: _138  and  _139
REMARK   60  A    between atoms: _138  and  _141
REMARK   61  A    between atoms: _141  and  _142
REMARK   62  A    between atoms: _144  and  _146
REMARK   63  A    between atoms: _146  and  _147
REMARK   64  A    between atoms: _146  and  _149
REMARK   65  A    between atoms: _149  and  _150
REMARK   66  A    between atoms: _155  and  _156
REMARK   67  A    between atoms: _158  and  _160
REMARK   68  A    between atoms: _160  and  _161
REMARK   69  A    between atoms: _163  and  _165
REMARK   70  A    between atoms: _165  and  _166
REMARK   71  A    between atoms: _165  and  _168
REMARK   72  A    between atoms: _168  and  _169
REMARK   73  A    between atoms: _169  and  _170
REMARK   74  A    between atoms: _170  and  _171
REMARK   75  A    between atoms: _180  and  _182
REMARK   76  A    between atoms: _182  and  _183
REMARK   77  A    between atoms: _182  and  _185
REMARK   78  A    between atoms: _185  and  _186
REMARK   79  A    between atoms: _189  and  _191
REMARK   80  A    between atoms: _191  and  _192
REMARK   81  A    between atoms: _191  and  _194
REMARK   82  A    between atoms: _194  and  _195
REMARK   83  A    between atoms: _200  and  _201
REMARK   84  A    between atoms: _203  and  _205
REMARK   85  A    between atoms: _205  and  _206
REMARK   86  A    between atoms: _205  and  _208
REMARK   87  A    between atoms: _208  and  _209
REMARK   88  A    between atoms: _212  and  _214
REMARK   89  A    between atoms: _214  and  _215
REMARK   90  A    between atoms: _214  and  _217
REMARK   91  A    between atoms: _217  and  _218
REMARK   92  A    between atoms: _223  and  _224
REMARK   93  A    between atoms: _226  and  _228
REMARK   94  A    between atoms: _228  and  _229
REMARK   95  A    between atoms: _228  and  _231
REMARK   96  A    between atoms: _231  and  _232
REMARK   97  A    between atoms: _237  and  _239
REMARK   98  A    between atoms: _239  and  _240
REMARK   99  A    between atoms: _239  and  _242
REMARK  100  A    between atoms: _242  and  _243
REMARK  101  A    between atoms: _246  and  _248
REMARK  102  A    between atoms: _248  and  _249
REMARK  103  A    between atoms: _251  and  _253
REMARK  104  A    between atoms: _253  and  _254
REMARK  105  A    between atoms: _253  and  _256
REMARK  106  A    between atoms: _256  and  _257
REMARK  107  A    between atoms: _262  and  _263
REMARK  108  A    between atoms: _265  and  _267
REMARK  109  A    between atoms: _267  and  _268
REMARK  110  A    between atoms: _267  and  _270
REMARK  111  A    between atoms: _270  and  _271
REMARK  112  A    between atoms: _276  and  _277
REMARK  113  A    between atoms: _279  and  _281
REMARK  114  A    between atoms: _281  and  _282
REMARK  115  A    between atoms: _281  and  _284
REMARK  116  A    between atoms: _284  and  _285
REMARK  117  A    between atoms: _287  and  _289
REMARK  118  A    between atoms: _289  and  _290
REMARK  119  A    between atoms: _289  and  _292
REMARK  120  A    between atoms: _292  and  _293
REMARK                            x       y       z     vdW  Elec       q    Type
REMARK                         _______ _______ _______ _____ _____    ______ ____
ROOT
ATOM      1  O   HOH     1     -29.129  32.425  19.080  0.00  0.00    +0.000 OA
ENDROOT
TORSDOF 0
REMARK  Name = ../refined-set-2016/3tay/3tay_pocket.pdb
REMARK  120 active torsions:
REMARK  status: ('A' for Active; 'I' for Inactive)
REMARK    1  A    between atoms: _1  and  _3
REMARK    2  A    between atoms: _3  and  _4
REMARK    3  A    between atoms: _3  and  _6
REMARK    4  A    between atoms: _6  and  _7
REMARK    5  A    between atoms: _10  and  _12
REMARK    6  A    between atoms: _12  and  _13
REMARK    7  A    between atoms: _12  and  _15
REMARK    8  A    between atoms: _15  and  _16
REMARK    9  A    between atoms: _16  and  _17
REMARK   10  A    between atoms: _17  and  _18
REMARK   11  A    between atoms: _27  and  _29
REMARK   12  A    between atoms: _29  and  _30
REMARK   13  A    between atoms: _29  and  _32
REMARK   14  A    between atoms: _32  and  _33
REMARK   15  A    between atoms: _43  and  _45
REMARK   16  A    between atoms: _45  and  _46
REMARK   17  A    between atoms: _45  and  _48
REMARK   18  A    between atoms: _48  and  _49
REMARK   19  A    between atoms: _52  and  _54
REMARK   20  A    between atoms: _54  and  _55
REMARK   21  A    between atoms: _54  and  _57
REMARK   22  A    between atoms: _57  and  _58
REMARK   23  A    between atoms: _61  and  _63
REMARK   24  A    between atoms: _63  and  _64
REMARK   25  A    between atoms: _63  and  _66
REMARK   26  A    between atoms: _69  and  _71
REMARK   27  A    between atoms: _71  and  _72
REMARK   28  A    between atoms: _71  and  _74
REMARK   29  A    between atoms: _74  and  _75
REMARK   30  A    between atoms: _77  and  _79
REMARK   31  A    between atoms: _79  and  _80
REMARK   32  A    between atoms: _79  and  _82
REMARK   33  A    between atoms: _82  and  _83
REMARK   34  A    between atoms: _83  and  _84
REMARK   35  A    between atoms: _84  and  _85
REMARK   36  A    between atoms: _85  and  _86
REMARK   37  A    between atoms: _90  and  _92
REMARK   38  A    between atoms: _92  and  _93
REMARK   39  A    between atoms: _92  and  _95
REMARK   40  A    between atoms: _95  and  _96
REMARK   41  A    between atoms: _99  and  _101
REMARK   42  A    between atoms: _101  and  _102
REMARK   43  A    between atoms: _101  and  _104
REMARK   44  A    between atoms: _104  and  _105
REMARK   45  A    between atoms: _108  and  _110
REMARK   46  A    between atoms: _110  and  _111
REMARK   47  A    between atoms: _110  and  _113
REMARK   48  A    between atoms: _113  and  _114
REMARK   49  A    between atoms: _114  and  _115
REMARK   50  A    between atoms: _120  and  _122
REMARK   51  A    between atoms: _122  and  _123
REMARK   52  A    between atoms: _122  and  _125
REMARK   53  A    between atoms: _125  and  _126
REMARK   54  A    between atoms: _131  and  _133
REMARK   55  A    between atoms: _133  and  _134
REMARK   56  A    between atoms: _134  and  _135
REMARK   57  A    between atoms: _134  and  _136
REMARK   58  A    between atoms: _136  and  _138
REMARK   59  A    between atoms: _138  and  _139
REMARK   60  A    between atoms: _138  and  _141
REMARK   61  A    between atoms: _141  and  _142
REMARK   62  A    between atoms: _144  and  _146
REMARK   63  A    between atoms: _146  and  _147
REMARK   64  A    between atoms: _146  and  _149
REMARK   65  A    between atoms: _149  and  _150
REMARK   66  A    between atoms: _155  and  _156
REMARK   67  A    between atoms: _158  and  _160
REMARK   68  A    between atoms: _160  and  _161
REMARK   69  A    between atoms: _163  and  _165
REMARK   70  A    between atoms: _165  and  _166
REMARK   71  A    between atoms: _165  and  _168
REMARK   72  A    between atoms: _168  and  _169
REMARK   73  A    between atoms: _169  and  _170
REMARK   74  A    between atoms: _170  and  _171
REMARK   75  A    between atoms: _180  and  _182
REMARK   76  A    between atoms: _182  and  _183
REMARK   77  A    between atoms: _182  and  _185
REMARK   78  A    between atoms: _185  and  _186
REMARK   79  A    between atoms: _189  and  _191
REMARK   80  A    between atoms: _191  and  _192
REMARK   81  A    between atoms: _191  and  _194
REMARK   82  A    between atoms: _194  and  _195
REMARK   83  A    between atoms: _200  and  _201
REMARK   84  A    between atoms: _203  and  _205
REMARK   85  A    between atoms: _205  and  _206
REMARK   86  A    between atoms: _205  and  _208
REMARK   87  A    between atoms: _208  and  _209
REMARK   88  A    between atoms: _212  and  _214
REMARK   89  A    between atoms: _214  and  _215
REMARK   90  A    between atoms: _214  and  _217
REMARK   91  A    between atoms: _217  and  _218
REMARK   92  A    between atoms: _223  and  _224
REMARK   93  A    between atoms: _226  and  _228
REMARK   94  A    between atoms: _228  and  _229
REMARK   95  A    between atoms: _228  and  _231
REMARK   96  A    between atoms: _231  and  _232
REMARK   97  A    between atoms: _237  and  _239
REMARK   98  A    between atoms: _239  and  _240
REMARK   99  A    between atoms: _239  and  _242
REMARK  100  A    between atoms: _242  and  _243
REMARK  101  A    between atoms: _246  and  _248
REMARK  102  A    between atoms: _248  and  _249
REMARK  103  A    between atoms: _251  and  _253
REMARK  104  A    between atoms: _253  and  _254
REMARK  105  A    between atoms: _253  and  _256
REMARK  106  A    between atoms: _256  and  _257
REMARK  107  A    between atoms: _262  and  _263
REMARK  108  A    between atoms: _265  and  _267
REMARK  109  A    between atoms: _267  and  _268
REMARK  110  A    between atoms: _267  and  _270
REMARK  111  A    between atoms: _270  and  _271
REMARK  112  A    between atoms: _276  and  _277
REMARK  113  A    between atoms: _279  and  _281
REMARK  114  A    between atoms: _281  and  _282
REMARK  115  A    between atoms: _281  and  _284
REMARK  116  A    between atoms: _284  and  _285
REMARK  117  A    between atoms: _287  and  _289
REMARK  118  A    between atoms: _289  and  _290
REMARK  119  A    between atoms: _289  and  _292
REMARK  120  A    between atoms: _292  and  _293
REMARK                            x       y       z     vdW  Elec       q    Type
REMARK                         _______ _______ _______ _____ _____    ______ ____
ROOT
ATOM      1  O   HOH     1     -23.771  45.211  17.476  0.00  0.00    +0.000 OA
ENDROOT
TORSDOF 0
REMARK  Name = ../refined-set-2016/3tay/3tay_pocket.pdb
REMARK  120 active torsions:
REMARK  status: ('A' for Active; 'I' for Inactive)
REMARK    1  A    between atoms: _1  and  _3
REMARK    2  A    between atoms: _3  and  _4
REMARK    3  A    between atoms: _3  and  _6
REMARK    4  A    between atoms: _6  and  _7
REMARK    5  A    between atoms: _10  and  _12
REMARK    6  A    between atoms: _12  and  _13
REMARK    7  A    between atoms: _12  and  _15
REMARK    8  A    between atoms: _15  and  _16
REMARK    9  A    between atoms: _16  and  _17
REMARK   10  A    between atoms: _17  and  _18
REMARK   11  A    between atoms: _27  and  _29
REMARK   12  A    between atoms: _29  and  _30
REMARK   13  A    between atoms: _29  and  _32
REMARK   14  A    between atoms: _32  and  _33
REMARK   15  A    between atoms: _43  and  _45
REMARK   16  A    between atoms: _45  and  _46
REMARK   17  A    between atoms: _45  and  _48
REMARK   18  A    between atoms: _48  and  _49
REMARK   19  A    between atoms: _52  and  _54
REMARK   20  A    between atoms: _54  and  _55
REMARK   21  A    between atoms: _54  and  _57
REMARK   22  A    between atoms: _57  and  _58
REMARK   23  A    between atoms: _61  and  _63
REMARK   24  A    between atoms: _63  and  _64
REMARK   25  A    between atoms: _63  and  _66
REMARK   26  A    between atoms: _69  and  _71
REMARK   27  A    between atoms: _71  and  _72
REMARK   28  A    between atoms: _71  and  _74
REMARK   29  A    between atoms: _74  and  _75
REMARK   30  A    between atoms: _77  and  _79
REMARK   31  A    between atoms: _79  and  _80
REMARK   32  A    between atoms: _79  and  _82
REMARK   33  A    between atoms: _82  and  _83
REMARK   34  A    between atoms: _83  and  _84
REMARK   35  A    between atoms: _84  and  _85
REMARK   36  A    between atoms: _85  and  _86
REMARK   37  A    between atoms: _90  and  _92
REMARK   38  A    between atoms: _92  and  _93
REMARK   39  A    between atoms: _92  and  _95
REMARK   40  A    between atoms: _95  and  _96
REMARK   41  A    between atoms: _99  and  _101
REMARK   42  A    between atoms: _101  and  _102
REMARK   43  A    between atoms: _101  and  _104
REMARK   44  A    between atoms: _104  and  _105
REMARK   45  A    between atoms: _108  and  _110
REMARK   46  A    between atoms: _110  and  _111
REMARK   47  A    between atoms: _110  and  _113
REMARK   48  A    between atoms: _113  and  _114
REMARK   49  A    between atoms: _114  and  _115
REMARK   50  A    between atoms: _120  and  _122
REMARK   51  A    between atoms: _122  and  _123
REMARK   52  A    between atoms: _122  and  _125
REMARK   53  A    between atoms: _125  and  _126
REMARK   54  A    between atoms: _131  and  _133
REMARK   55  A    between atoms: _133  and  _134
REMARK   56  A    between atoms: _134  and  _135
REMARK   57  A    between atoms: _134  and  _136
REMARK   58  A    between atoms: _136  and  _138
REMARK   59  A    between atoms: _138  and  _139
REMARK   60  A    between atoms: _138  and  _141
REMARK   61  A    between atoms: _141  and  _142
REMARK   62  A    between atoms: _144  and  _146
REMARK   63  A    between atoms: _146  and  _147
REMARK   64  A    between atoms: _146  and  _149
REMARK   65  A    between atoms: _149  and  _150
REMARK   66  A    between atoms: _155  and  _156
REMARK   67  A    between atoms: _158  and  _160
REMARK   68  A    between atoms: _160  and  _161
REMARK   69  A    between atoms: _163  and  _165
REMARK   70  A    between atoms: _165  and  _166
REMARK   71  A    between atoms: _165  and  _168
REMARK   72  A    between atoms: _168  and  _169
REMARK   73  A    between atoms: _169  and  _170
REMARK   74  A    between atoms: _170  and  _171
REMARK   75  A    between atoms: _180  and  _182
REMARK   76  A    between atoms: _182  and  _183
REMARK   77  A    between atoms: _182  and  _185
REMARK   78  A    between atoms: _185  and  _186
REMARK   79  A    between atoms: _189  and  _191
REMARK   80  A    between atoms: _191  and  _192
REMARK   81  A    between atoms: _191  and  _194
REMARK   82  A    between atoms: _194  and  _195
REMARK   83  A    between atoms: _200  and  _201
REMARK   84  A    between atoms: _203  and  _205
REMARK   85  A    between atoms: _205  and  _206
REMARK   86  A    between atoms: _205  and  _208
REMARK   87  A    between atoms: _208  and  _209
REMARK   88  A    between atoms: _212  and  _214
REMARK   89  A    between atoms: _214  and  _215
REMARK   90  A    between atoms: _214  and  _217
REMARK   91  A    between atoms: _217  and  _218
REMARK   92  A    between atoms: _223  and  _224
REMARK   93  A    between atoms: _226  and  _228
REMARK   94  A    between atoms: _228  and  _229
REMARK   95  A    between atoms: _228  and  _231
REMARK   96  A    between atoms: _231  and  _232
REMARK   97  A    between atoms: _237  and  _239
REMARK   98  A    between atoms: _239  and  _240
REMARK   99  A    between atoms: _239  and  _242
REMARK  100  A    between atoms: _242  and  _243
REMARK  101  A    between atoms: _246  and  _248
REMARK  102  A    between atoms: _248  and  _249
REMARK  103  A    between atoms: _251  and  _253
REMARK  104  A    between atoms: _253  and  _254
REMARK  105  A    between atoms: _253  and  _256
REMARK  106  A    between atoms: _256  and  _257
REMARK  107  A    between atoms: _262  and  _263
REMARK  108  A    between atoms: _265  and  _267
REMARK  109  A    between atoms: _267  and  _268
REMARK  110  A    between atoms: _267  and  _270
REMARK  111  A    between atoms: _270  and  _271
REMARK  112  A    between atoms: _276  and  _277
REMARK  113  A    between atoms: _279  and  _281
REMARK  114  A    between atoms: _281  and  _282
REMARK  115  A    between atoms: _281  and  _284
REMARK  116  A    between atoms: _284  and  _285
REMARK  117  A    between atoms: _287  and  _289
REMARK  118  A    between atoms: _289  and  _290
REMARK  119  A    between atoms: _289  and  _292
REMARK  120  A    between atoms: _292  and  _293
REMARK                            x       y       z     vdW  Elec       q    Type
REMARK                         _______ _______ _______ _____ _____    ______ ____
ROOT
ATOM      1  O   HOH     1     -36.699  39.564  21.722  0.00  0.00    +0.000 OA
ENDROOT
TORSDOF 0
REMARK  Name = ../refined-set-2016/3tay/3tay_pocket.pdb
REMARK  120 active torsions:
REMARK  status: ('A' for Active; 'I' for Inactive)
REMARK    1  A    between atoms: _1  and  _3
REMARK    2  A    between atoms: _3  and  _4
REMARK    3  A    between atoms: _3  and  _6
REMARK    4  A    between atoms: _6  and  _7
REMARK    5  A    between atoms: _10  and  _12
REMARK    6  A    between atoms: _12  and  _13
REMARK    7  A    between atoms: _12  and  _15
REMARK    8  A    between atoms: _15  and  _16
REMARK    9  A    between atoms: _16  and  _17
REMARK   10  A    between atoms: _17  and  _18
REMARK   11  A    between atoms: _27  and  _29
REMARK   12  A    between atoms: _29  and  _30
REMARK   13  A    between atoms: _29  and  _32
REMARK   14  A    between atoms: _32  and  _33
REMARK   15  A    between atoms: _43  and  _45
REMARK   16  A    between atoms: _45  and  _46
REMARK   17  A    between atoms: _45  and  _48
REMARK   18  A    between atoms: _48  and  _49
REMARK   19  A    between atoms: _52  and  _54
REMARK   20  A    between atoms: _54  and  _55
REMARK   21  A    between atoms: _54  and  _57
REMARK   22  A    between atoms: _57  and  _58
REMARK   23  A    between atoms: _61  and  _63
REMARK   24  A    between atoms: _63  and  _64
REMARK   25  A    between atoms: _63  and  _66
REMARK   26  A    between atoms: _69  and  _71
REMARK   27  A    between atoms: _71  and  _72
REMARK   28  A    between atoms: _71  and  _74
REMARK   29  A    between atoms: _74  and  _75
REMARK   30  A    between atoms: _77  and  _79
REMARK   31  A    between atoms: _79  and  _80
REMARK   32  A    between atoms: _79  and  _82
REMARK   33  A    between atoms: _82  and  _83
REMARK   34  A    between atoms: _83  and  _84
REMARK   35  A    between atoms: _84  and  _85
REMARK   36  A    between atoms: _85  and  _86
REMARK   37  A    between atoms: _90  and  _92
REMARK   38  A    between atoms: _92  and  _93
REMARK   39  A    between atoms: _92  and  _95
REMARK   40  A    between atoms: _95  and  _96
REMARK   41  A    between atoms: _99  and  _101
REMARK   42  A    between atoms: _101  and  _102
REMARK   43  A    between atoms: _101  and  _104
REMARK   44  A    between atoms: _104  and  _105
REMARK   45  A    between atoms: _108  and  _110
REMARK   46  A    between atoms: _110  and  _111
REMARK   47  A    between atoms: _110  and  _113
REMARK   48  A    between atoms: _113  and  _114
REMARK   49  A    between atoms: _114  and  _115
REMARK   50  A    between atoms: _120  and  _122
REMARK   51  A    between atoms: _122  and  _123
REMARK   52  A    between atoms: _122  and  _125
REMARK   53  A    between atoms: _125  and  _126
REMARK   54  A    between atoms: _131  and  _133
REMARK   55  A    between atoms: _133  and  _134
REMARK   56  A    between atoms: _134  and  _135
REMARK   57  A    between atoms: _134  and  _136
REMARK   58  A    between atoms: _136  and  _138
REMARK   59  A    between atoms: _138  and  _139
REMARK   60  A    between atoms: _138  and  _141
REMARK   61  A    between atoms: _141  and  _142
REMARK   62  A    between atoms: _144  and  _146
REMARK   63  A    between atoms: _146  and  _147
REMARK   64  A    between atoms: _146  and  _149
REMARK   65  A    between atoms: _149  and  _150
REMARK   66  A    between atoms: _155  and  _156
REMARK   67  A    between atoms: _158  and  _160
REMARK   68  A    between atoms: _160  and  _161
REMARK   69  A    between atoms: _163  and  _165
REMARK   70  A    between atoms: _165  and  _166
REMARK   71  A    between atoms: _165  and  _168
REMARK   72  A    between atoms: _168  and  _169
REMARK   73  A    between atoms: _169  and  _170
REMARK   74  A    between atoms: _170  and  _171
REMARK   75  A    between atoms: _180  and  _182
REMARK   76  A    between atoms: _182  and  _183
REMARK   77  A    between atoms: _182  and  _185
REMARK   78  A    between atoms: _185  and  _186
REMARK   79  A    between atoms: _189  and  _191
REMARK   80  A    between atoms: _191  and  _192
REMARK   81  A    between atoms: _191  and  _194
REMARK   82  A    between atoms: _194  and  _195
REMARK   83  A    between atoms: _200  and  _201
REMARK   84  A    between atoms: _203  and  _205
REMARK   85  A    between atoms: _205  and  _206
REMARK   86  A    between atoms: _205  and  _208
REMARK   87  A    between atoms: _208  and  _209
REMARK   88  A    between atoms: _212  and  _214
REMARK   89  A    between atoms: _214  and  _215
REMARK   90  A    between atoms: _214  and  _217
REMARK   91  A    between atoms: _217  and  _218
REMARK   92  A    between atoms: _223  and  _224
REMARK   93  A    between atoms: _226  and  _228
REMARK   94  A    between atoms: _228  and  _229
REMARK   95  A    between atoms: _228  and  _231
REMARK   96  A    between atoms: _231  and  _232
REMARK   97  A    between atoms: _237  and  _239
REMARK   98  A    between atoms: _239  and  _240
REMARK   99  A    between atoms: _239  and  _242
REMARK  100  A    between atoms: _242  and  _243
REMARK  101  A    between atoms: _246  and  _248
REMARK  102  A    between atoms: _248  and  _249
REMARK  103  A    between atoms: _251  and  _253
REMARK  104  A    between atoms: _253  and  _254
REMARK  105  A    between atoms: _253  and  _256
REMARK  106  A    between atoms: _256  and  _257
REMARK  107  A    between atoms: _262  and  _263
REMARK  108  A    between atoms: _265  and  _267
REMARK  109  A    between atoms: _267  and  _268
REMARK  110  A    between atoms: _267  and  _270
REMARK  111  A    between atoms: _270  and  _271
REMARK  112  A    between atoms: _276  and  _277
REMARK  113  A    between atoms: _279  and  _281
REMARK  114  A    between atoms: _281  and  _282
REMARK  115  A    between atoms: _281  and  _284
REMARK  116  A    between atoms: _284  and  _285
REMARK  117  A    between atoms: _287  and  _289
REMARK  118  A    between atoms: _289  and  _290
REMARK  119  A    between atoms: _289  and  _292
REMARK  120  A    between atoms: _292  and  _293
REMARK                            x       y       z     vdW  Elec       q    Type
REMARK                         _______ _______ _______ _____ _____    ______ ____
ROOT
ATOM      1  O   HOH     1     -36.580  40.241  31.143  0.00  0.00    +0.000 OA
ENDROOT
TORSDOF 0
REMARK  Name = ../refined-set-2016/3tay/3tay_pocket.pdb
REMARK  120 active torsions:
REMARK  status: ('A' for Active; 'I' for Inactive)
REMARK    1  A    between atoms: _1  and  _3
REMARK    2  A    between atoms: _3  and  _4
REMARK    3  A    between atoms: _3  and  _6
REMARK    4  A    between atoms: _6  and  _7
REMARK    5  A    between atoms: _10  and  _12
REMARK    6  A    between atoms: _12  and  _13
REMARK    7  A    between atoms: _12  and  _15
REMARK    8  A    between atoms: _15  and  _16
REMARK    9  A    between atoms: _16  and  _17
REMARK   10  A    between atoms: _17  and  _18
REMARK   11  A    between atoms: _27  and  _29
REMARK   12  A    between atoms: _29  and  _30
REMARK   13  A    between atoms: _29  and  _32
REMARK   14  A    between atoms: _32  and  _33
REMARK   15  A    between atoms: _43  and  _45
REMARK   16  A    between atoms: _45  and  _46
REMARK   17  A    between atoms: _45  and  _48
REMARK   18  A    between atoms: _48  and  _49
REMARK   19  A    between atoms: _52  and  _54
REMARK   20  A    between atoms: _54  and  _55
REMARK   21  A    between atoms: _54  and  _57
REMARK   22  A    between atoms: _57  and  _58
REMARK   23  A    between atoms: _61  and  _63
REMARK   24  A    between atoms: _63  and  _64
REMARK   25  A    between atoms: _63  and  _66
REMARK   26  A    between atoms: _69  and  _71
REMARK   27  A    between atoms: _71  and  _72
REMARK   28  A    between atoms: _71  and  _74
REMARK   29  A    between atoms: _74  and  _75
REMARK   30  A    between atoms: _77  and  _79
REMARK   31  A    between atoms: _79  and  _80
REMARK   32  A    between atoms: _79  and  _82
REMARK   33  A    between atoms: _82  and  _83
REMARK   34  A    between atoms: _83  and  _84
REMARK   35  A    between atoms: _84  and  _85
REMARK   36  A    between atoms: _85  and  _86
REMARK   37  A    between atoms: _90  and  _92
REMARK   38  A    between atoms: _92  and  _93
REMARK   39  A    between atoms: _92  and  _95
REMARK   40  A    between atoms: _95  and  _96
REMARK   41  A    between atoms: _99  and  _101
REMARK   42  A    between atoms: _101  and  _102
REMARK   43  A    between atoms: _101  and  _104
REMARK   44  A    between atoms: _104  and  _105
REMARK   45  A    between atoms: _108  and  _110
REMARK   46  A    between atoms: _110  and  _111
REMARK   47  A    between atoms: _110  and  _113
REMARK   48  A    between atoms: _113  and  _114
REMARK   49  A    between atoms: _114  and  _115
REMARK   50  A    between atoms: _120  and  _122
REMARK   51  A    between atoms: _122  and  _123
REMARK   52  A    between atoms: _122  and  _125
REMARK   53  A    between atoms: _125  and  _126
REMARK   54  A    between atoms: _131  and  _133
REMARK   55  A    between atoms: _133  and  _134
REMARK   56  A    between atoms: _134  and  _135
REMARK   57  A    between atoms: _134  and  _136
REMARK   58  A    between atoms: _136  and  _138
REMARK   59  A    between atoms: _138  and  _139
REMARK   60  A    between atoms: _138  and  _141
REMARK   61  A    between atoms: _141  and  _142
REMARK   62  A    between atoms: _144  and  _146
REMARK   63  A    between atoms: _146  and  _147
REMARK   64  A    between atoms: _146  and  _149
REMARK   65  A    between atoms: _149  and  _150
REMARK   66  A    between atoms: _155  and  _156
REMARK   67  A    between atoms: _158  and  _160
REMARK   68  A    between atoms: _160  and  _161
REMARK   69  A    between atoms: _163  and  _165
REMARK   70  A    between atoms: _165  and  _166
REMARK   71  A    between atoms: _165  and  _168
REMARK   72  A    between atoms: _168  and  _169
REMARK   73  A    between atoms: _169  and  _170
REMARK   74  A    between atoms: _170  and  _171
REMARK   75  A    between atoms: _180  and  _182
REMARK   76  A    between atoms: _182  and  _183
REMARK   77  A    between atoms: _182  and  _185
REMARK   78  A    between atoms: _185  and  _186
REMARK   79  A    between atoms: _189  and  _191
REMARK   80  A    between atoms: _191  and  _192
REMARK   81  A    between atoms: _191  and  _194
REMARK   82  A    between atoms: _194  and  _195
REMARK   83  A    between atoms: _200  and  _201
REMARK   84  A    between atoms: _203  and  _205
REMARK   85  A    between atoms: _205  and  _206
REMARK   86  A    between atoms: _205  and  _208
REMARK   87  A    between atoms: _208  and  _209
REMARK   88  A    between atoms: _212  and  _214
REMARK   89  A    between atoms: _214  and  _215
REMARK   90  A    between atoms: _214  and  _217
REMARK   91  A    between atoms: _217  and  _218
REMARK   92  A    between atoms: _223  and  _224
REMARK   93  A    between atoms: _226  and  _228
REMARK   94  A    between atoms: _228  and  _229
REMARK   95  A    between atoms: _228  and  _231
REMARK   96  A    between atoms: _231  and  _232
REMARK   97  A    between atoms: _237  and  _239
REMARK   98  A    between atoms: _239  and  _240
REMARK   99  A    between atoms: _239  and  _242
REMARK  100  A    between atoms: _242  and  _243
REMARK  101  A    between atoms: _246  and  _248
REMARK  102  A    between atoms: _248  and  _249
REMARK  103  A    between atoms: _251  and  _253
REMARK  104  A    between atoms: _253  and  _254
REMARK  105  A    between atoms: _253  and  _256
REMARK  106  A    between atoms: _256  and  _257
REMARK  107  A    between atoms: _262  and  _263
REMARK  108  A    between atoms: _265  and  _267
REMARK  109  A    between atoms: _267  and  _268
REMARK  110  A    between atoms: _267  and  _270
REMARK  111  A    between atoms: _270  and  _271
REMARK  112  A    between atoms: _276  and  _277
REMARK  113  A    between atoms: _279  and  _281
REMARK  114  A    between atoms: _281  and  _282
REMARK  115  A    between atoms: _281  and  _284
REMARK  116  A    between atoms: _284  and  _285
REMARK  117  A    between atoms: _287  and  _289
REMARK  118  A    between atoms: _289  and  _290
REMARK  119  A    between atoms: _289  and  _292
REMARK  120  A    between atoms: _292  and  _293
REMARK                            x       y       z     vdW  Elec       q    Type
REMARK                         _______ _______ _______ _____ _____    ______ ____
ROOT
ATOM      1  O   HOH     1     -38.235  37.340  21.666  0.00  0.00    +0.000 OA
ENDROOT
TORSDOF 0
REMARK  Name = ../refined-set-2016/3tay/3tay_pocket.pdb
REMARK  120 active torsions:
REMARK  status: ('A' for Active; 'I' for Inactive)
REMARK    1  A    between atoms: _1  and  _3
REMARK    2  A    between atoms: _3  and  _4
REMARK    3  A    between atoms: _3  and  _6
REMARK    4  A    between atoms: _6  and  _7
REMARK    5  A    between atoms: _10  and  _12
REMARK    6  A    between atoms: _12  and  _13
REMARK    7  A    between atoms: _12  and  _15
REMARK    8  A    between atoms: _15  and  _16
REMARK    9  A    between atoms: _16  and  _17
REMARK   10  A    between atoms: _17  and  _18
REMARK   11  A    between atoms: _27  and  _29
REMARK   12  A    between atoms: _29  and  _30
REMARK   13  A    between atoms: _29  and  _32
REMARK   14  A    between atoms: _32  and  _33
REMARK   15  A    between atoms: _43  and  _45
REMARK   16  A    between atoms: _45  and  _46
REMARK   17  A    between atoms: _45  and  _48
REMARK   18  A    between atoms: _48  and  _49
REMARK   19  A    between atoms: _52  and  _54
REMARK   20  A    between atoms: _54  and  _55
REMARK   21  A    between atoms: _54  and  _57
REMARK   22  A    between atoms: _57  and  _58
REMARK   23  A    between atoms: _61  and  _63
REMARK   24  A    between atoms: _63  and  _64
REMARK   25  A    between atoms: _63  and  _66
REMARK   26  A    between atoms: _69  and  _71
REMARK   27  A    between atoms: _71  and  _72
REMARK   28  A    between atoms: _71  and  _74
REMARK   29  A    between atoms: _74  and  _75
REMARK   30  A    between atoms: _77  and  _79
REMARK   31  A    between atoms: _79  and  _80
REMARK   32  A    between atoms: _79  and  _82
REMARK   33  A    between atoms: _82  and  _83
REMARK   34  A    between atoms: _83  and  _84
REMARK   35  A    between atoms: _84  and  _85
REMARK   36  A    between atoms: _85  and  _86
REMARK   37  A    between atoms: _90  and  _92
REMARK   38  A    between atoms: _92  and  _93
REMARK   39  A    between atoms: _92  and  _95
REMARK   40  A    between atoms: _95  and  _96
REMARK   41  A    between atoms: _99  and  _101
REMARK   42  A    between atoms: _101  and  _102
REMARK   43  A    between atoms: _101  and  _104
REMARK   44  A    between atoms: _104  and  _105
REMARK   45  A    between atoms: _108  and  _110
REMARK   46  A    between atoms: _110  and  _111
REMARK   47  A    between atoms: _110  and  _113
REMARK   48  A    between atoms: _113  and  _114
REMARK   49  A    between atoms: _114  and  _115
REMARK   50  A    between atoms: _120  and  _122
REMARK   51  A    between atoms: _122  and  _123
REMARK   52  A    between atoms: _122  and  _125
REMARK   53  A    between atoms: _125  and  _126
REMARK   54  A    between atoms: _131  and  _133
REMARK   55  A    between atoms: _133  and  _134
REMARK   56  A    between atoms: _134  and  _135
REMARK   57  A    between atoms: _134  and  _136
REMARK   58  A    between atoms: _136  and  _138
REMARK   59  A    between atoms: _138  and  _139
REMARK   60  A    between atoms: _138  and  _141
REMARK   61  A    between atoms: _141  and  _142
REMARK   62  A    between atoms: _144  and  _146
REMARK   63  A    between atoms: _146  and  _147
REMARK   64  A    between atoms: _146  and  _149
REMARK   65  A    between atoms: _149  and  _150
REMARK   66  A    between atoms: _155  and  _156
REMARK   67  A    between atoms: _158  and  _160
REMARK   68  A    between atoms: _160  and  _161
REMARK   69  A    between atoms: _163  and  _165
REMARK   70  A    between atoms: _165  and  _166
REMARK   71  A    between atoms: _165  and  _168
REMARK   72  A    between atoms: _168  and  _169
REMARK   73  A    between atoms: _169  and  _170
REMARK   74  A    between atoms: _170  and  _171
REMARK   75  A    between atoms: _180  and  _182
REMARK   76  A    between atoms: _182  and  _183
REMARK   77  A    between atoms: _182  and  _185
REMARK   78  A    between atoms: _185  and  _186
REMARK   79  A    between atoms: _189  and  _191
REMARK   80  A    between atoms: _191  and  _192
REMARK   81  A    between atoms: _191  and  _194
REMARK   82  A    between atoms: _194  and  _195
REMARK   83  A    between atoms: _200  and  _201
REMARK   84  A    between atoms: _203  and  _205
REMARK   85  A    between atoms: _205  and  _206
REMARK   86  A    between atoms: _205  and  _208
REMARK   87  A    between atoms: _208  and  _209
REMARK   88  A    between atoms: _212  and  _214
REMARK   89  A    between atoms: _214  and  _215
REMARK   90  A    between atoms: _214  and  _217
REMARK   91  A    between atoms: _217  and  _218
REMARK   92  A    between atoms: _223  and  _224
REMARK   93  A    between atoms: _226  and  _228
REMARK   94  A    between atoms: _228  and  _229
REMARK   95  A    between atoms: _228  and  _231
REMARK   96  A    between atoms: _231  and  _232
REMARK   97  A    between atoms: _237  and  _239
REMARK   98  A    between atoms: _239  and  _240
REMARK   99  A    between atoms: _239  and  _242
REMARK  100  A    between atoms: _242  and  _243
REMARK  101  A    between atoms: _246  and  _248
REMARK  102  A    between atoms: _248  and  _249
REMARK  103  A    between atoms: _251  and  _253
REMARK  104  A    between atoms: _253  and  _254
REMARK  105  A    between atoms: _253  and  _256
REMARK  106  A    between atoms: _256  and  _257
REMARK  107  A    between atoms: _262  and  _263
REMARK  108  A    between atoms: _265  and  _267
REMARK  109  A    between atoms: _267  and  _268
REMARK  110  A    between atoms: _267  and  _270
REMARK  111  A    between atoms: _270  and  _271
REMARK  112  A    between atoms: _276  and  _277
REMARK  113  A    between atoms: _279  and  _281
REMARK  114  A    between atoms: _281  and  _282
REMARK  115  A    between atoms: _281  and  _284
REMARK  116  A    between atoms: _284  and  _285
REMARK  117  A    between atoms: _287  and  _289
REMARK  118  A    between atoms: _289  and  _290
REMARK  119  A    between atoms: _289  and  _292
REMARK  120  A    between atoms: _292  and  _293
REMARK                            x       y       z     vdW  Elec       q    Type
REMARK                         _______ _______ _______ _____ _____    ______ ____
ROOT
ATOM      1  O   HOH     1     -34.336  32.156  19.427  0.00  0.00    +0.000 OA
ENDROOT
TORSDOF 0
REMARK  Name = ../refined-set-2016/3tay/3tay_pocket.pdb
REMARK  120 active torsions:
REMARK  status: ('A' for Active; 'I' for Inactive)
REMARK    1  A    between atoms: _1  and  _3
REMARK    2  A    between atoms: _3  and  _4
REMARK    3  A    between atoms: _3  and  _6
REMARK    4  A    between atoms: _6  and  _7
REMARK    5  A    between atoms: _10  and  _12
REMARK    6  A    between atoms: _12  and  _13
REMARK    7  A    between atoms: _12  and  _15
REMARK    8  A    between atoms: _15  and  _16
REMARK    9  A    between atoms: _16  and  _17
REMARK   10  A    between atoms: _17  and  _18
REMARK   11  A    between atoms: _27  and  _29
REMARK   12  A    between atoms: _29  and  _30
REMARK   13  A    between atoms: _29  and  _32
REMARK   14  A    between atoms: _32  and  _33
REMARK   15  A    between atoms: _43  and  _45
REMARK   16  A    between atoms: _45  and  _46
REMARK   17  A    between atoms: _45  and  _48
REMARK   18  A    between atoms: _48  and  _49
REMARK   19  A    between atoms: _52  and  _54
REMARK   20  A    between atoms: _54  and  _55
REMARK   21  A    between atoms: _54  and  _57
REMARK   22  A    between atoms: _57  and  _58
REMARK   23  A    between atoms: _61  and  _63
REMARK   24  A    between atoms: _63  and  _64
REMARK   25  A    between atoms: _63  and  _66
REMARK   26  A    between atoms: _69  and  _71
REMARK   27  A    between atoms: _71  and  _72
REMARK   28  A    between atoms: _71  and  _74
REMARK   29  A    between atoms: _74  and  _75
REMARK   30  A    between atoms: _77  and  _79
REMARK   31  A    between atoms: _79  and  _80
REMARK   32  A    between atoms: _79  and  _82
REMARK   33  A    between atoms: _82  and  _83
REMARK   34  A    between atoms: _83  and  _84
REMARK   35  A    between atoms: _84  and  _85
REMARK   36  A    between atoms: _85  and  _86
REMARK   37  A    between atoms: _90  and  _92
REMARK   38  A    between atoms: _92  and  _93
REMARK   39  A    between atoms: _92  and  _95
REMARK   40  A    between atoms: _95  and  _96
REMARK   41  A    between atoms: _99  and  _101
REMARK   42  A    between atoms: _101  and  _102
REMARK   43  A    between atoms: _101  and  _104
REMARK   44  A    between atoms: _104  and  _105
REMARK   45  A    between atoms: _108  and  _110
REMARK   46  A    between atoms: _110  and  _111
REMARK   47  A    between atoms: _110  and  _113
REMARK   48  A    between atoms: _113  and  _114
REMARK   49  A    between atoms: _114  and  _115
REMARK   50  A    between atoms: _120  and  _122
REMARK   51  A    between atoms: _122  and  _123
REMARK   52  A    between atoms: _122  and  _125
REMARK   53  A    between atoms: _125  and  _126
REMARK   54  A    between atoms: _131  and  _133
REMARK   55  A    between atoms: _133  and  _134
REMARK   56  A    between atoms: _134  and  _135
REMARK   57  A    between atoms: _134  and  _136
REMARK   58  A    between atoms: _136  and  _138
REMARK   59  A    between atoms: _138  and  _139
REMARK   60  A    between atoms: _138  and  _141
REMARK   61  A    between atoms: _141  and  _142
REMARK   62  A    between atoms: _144  and  _146
REMARK   63  A    between atoms: _146  and  _147
REMARK   64  A    between atoms: _146  and  _149
REMARK   65  A    between atoms: _149  and  _150
REMARK   66  A    between atoms: _155  and  _156
REMARK   67  A    between atoms: _158  and  _160
REMARK   68  A    between atoms: _160  and  _161
REMARK   69  A    between atoms: _163  and  _165
REMARK   70  A    between atoms: _165  and  _166
REMARK   71  A    between atoms: _165  and  _168
REMARK   72  A    between atoms: _168  and  _169
REMARK   73  A    between atoms: _169  and  _170
REMARK   74  A    between atoms: _170  and  _171
REMARK   75  A    between atoms: _180  and  _182
REMARK   76  A    between atoms: _182  and  _183
REMARK   77  A    between atoms: _182  and  _185
REMARK   78  A    between atoms: _185  and  _186
REMARK   79  A    between atoms: _189  and  _191
REMARK   80  A    between atoms: _191  and  _192
REMARK   81  A    between atoms: _191  and  _194
REMARK   82  A    between atoms: _194  and  _195
REMARK   83  A    between atoms: _200  and  _201
REMARK   84  A    between atoms: _203  and  _205
REMARK   85  A    between atoms: _205  and  _206
REMARK   86  A    between atoms: _205  and  _208
REMARK   87  A    between atoms: _208  and  _209
REMARK   88  A    between atoms: _212  and  _214
REMARK   89  A    between atoms: _214  and  _215
REMARK   90  A    between atoms: _214  and  _217
REMARK   91  A    between atoms: _217  and  _218
REMARK   92  A    between atoms: _223  and  _224
REMARK   93  A    between atoms: _226  and  _228
REMARK   94  A    between atoms: _228  and  _229
REMARK   95  A    between atoms: _228  and  _231
REMARK   96  A    between atoms: _231  and  _232
REMARK   97  A    between atoms: _237  and  _239
REMARK   98  A    between atoms: _239  and  _240
REMARK   99  A    between atoms: _239  and  _242
REMARK  100  A    between atoms: _242  and  _243
REMARK  101  A    between atoms: _246  and  _248
REMARK  102  A    between atoms: _248  and  _249
REMARK  103  A    between atoms: _251  and  _253
REMARK  104  A    between atoms: _253  and  _254
REMARK  105  A    between atoms: _253  and  _256
REMARK  106  A    between atoms: _256  and  _257
REMARK  107  A    between atoms: _262  and  _263
REMARK  108  A    between atoms: _265  and  _267
REMARK  109  A    between atoms: _267  and  _268
REMARK  110  A    between atoms: _267  and  _270
REMARK  111  A    between atoms: _270  and  _271
REMARK  112  A    between atoms: _276  and  _277
REMARK  113  A    between atoms: _279  and  _281
REMARK  114  A    between atoms: _281  and  _282
REMARK  115  A    between atoms: _281  and  _284
REMARK  116  A    between atoms: _284  and  _285
REMARK  117  A    between atoms: _287  and  _289
REMARK  118  A    between atoms: _289  and  _290
REMARK  119  A    between atoms: _289  and  _292
REMARK  120  A    between atoms: _292  and  _293
REMARK                            x       y       z     vdW  Elec       q    Type
REMARK                         _______ _______ _______ _____ _____    ______ ____
ROOT
ATOM      1  O   HOH     1     -36.132  42.680  29.357  0.00  0.00    +0.000 OA
ENDROOT
TORSDOF 0
REMARK  Name = ../refined-set-2016/3tay/3tay_pocket.pdb
REMARK  120 active torsions:
REMARK  status: ('A' for Active; 'I' for Inactive)
REMARK    1  A    between atoms: _1  and  _3
REMARK    2  A    between atoms: _3  and  _4
REMARK    3  A    between atoms: _3  and  _6
REMARK    4  A    between atoms: _6  and  _7
REMARK    5  A    between atoms: _10  and  _12
REMARK    6  A    between atoms: _12  and  _13
REMARK    7  A    between atoms: _12  and  _15
REMARK    8  A    between atoms: _15  and  _16
REMARK    9  A    between atoms: _16  and  _17
REMARK   10  A    between atoms: _17  and  _18
REMARK   11  A    between atoms: _27  and  _29
REMARK   12  A    between atoms: _29  and  _30
REMARK   13  A    between atoms: _29  and  _32
REMARK   14  A    between atoms: _32  and  _33
REMARK   15  A    between atoms: _43  and  _45
REMARK   16  A    between atoms: _45  and  _46
REMARK   17  A    between atoms: _45  and  _48
REMARK   18  A    between atoms: _48  and  _49
REMARK   19  A    between atoms: _52  and  _54
REMARK   20  A    between atoms: _54  and  _55
REMARK   21  A    between atoms: _54  and  _57
REMARK   22  A    between atoms: _57  and  _58
REMARK   23  A    between atoms: _61  and  _63
REMARK   24  A    between atoms: _63  and  _64
REMARK   25  A    between atoms: _63  and  _66
REMARK   26  A    between atoms: _69  and  _71
REMARK   27  A    between atoms: _71  and  _72
REMARK   28  A    between atoms: _71  and  _74
REMARK   29  A    between atoms: _74  and  _75
REMARK   30  A    between atoms: _77  and  _79
REMARK   31  A    between atoms: _79  and  _80
REMARK   32  A    between atoms: _79  and  _82
REMARK   33  A    between atoms: _82  and  _83
REMARK   34  A    between atoms: _83  and  _84
REMARK   35  A    between atoms: _84  and  _85
REMARK   36  A    between atoms: _85  and  _86
REMARK   37  A    between atoms: _90  and  _92
REMARK   38  A    between atoms: _92  and  _93
REMARK   39  A    between atoms: _92  and  _95
REMARK   40  A    between atoms: _95  and  _96
REMARK   41  A    between atoms: _99  and  _101
REMARK   42  A    between atoms: _101  and  _102
REMARK   43  A    between atoms: _101  and  _104
REMARK   44  A    between atoms: _104  and  _105
REMARK   45  A    between atoms: _108  and  _110
REMARK   46  A    between atoms: _110  and  _111
REMARK   47  A    between atoms: _110  and  _113
REMARK   48  A    between atoms: _113  and  _114
REMARK   49  A    between atoms: _114  and  _115
REMARK   50  A    between atoms: _120  and  _122
REMARK   51  A    between atoms: _122  and  _123
REMARK   52  A    between atoms: _122  and  _125
REMARK   53  A    between atoms: _125  and  _126
REMARK   54  A    between atoms: _131  and  _133
REMARK   55  A    between atoms: _133  and  _134
REMARK   56  A    between atoms: _134  and  _135
REMARK   57  A    between atoms: _134  and  _136
REMARK   58  A    between atoms: _136  and  _138
REMARK   59  A    between atoms: _138  and  _139
REMARK   60  A    between atoms: _138  and  _141
REMARK   61  A    between atoms: _141  and  _142
REMARK   62  A    between atoms: _144  and  _146
REMARK   63  A    between atoms: _146  and  _147
REMARK   64  A    between atoms: _146  and  _149
REMARK   65  A    between atoms: _149  and  _150
REMARK   66  A    between atoms: _155  and  _156
REMARK   67  A    between atoms: _158  and  _160
REMARK   68  A    between atoms: _160  and  _161
REMARK   69  A    between atoms: _163  and  _165
REMARK   70  A    between atoms: _165  and  _166
REMARK   71  A    between atoms: _165  and  _168
REMARK   72  A    between atoms: _168  and  _169
REMARK   73  A    between atoms: _169  and  _170
REMARK   74  A    between atoms: _170  and  _171
REMARK   75  A    between atoms: _180  and  _182
REMARK   76  A    between atoms: _182  and  _183
REMARK   77  A    between atoms: _182  and  _185
REMARK   78  A    between atoms: _185  and  _186
REMARK   79  A    between atoms: _189  and  _191
REMARK   80  A    between atoms: _191  and  _192
REMARK   81  A    between atoms: _191  and  _194
REMARK   82  A    between atoms: _194  and  _195
REMARK   83  A    between atoms: _200  and  _201
REMARK   84  A    between atoms: _203  and  _205
REMARK   85  A    between atoms: _205  and  _206
REMARK   86  A    between atoms: _205  and  _208
REMARK   87  A    between atoms: _208  and  _209
REMARK   88  A    between atoms: _212  and  _214
REMARK   89  A    between atoms: _214  and  _215
REMARK   90  A    between atoms: _214  and  _217
REMARK   91  A    between atoms: _217  and  _218
REMARK   92  A    between atoms: _223  and  _224
REMARK   93  A    between atoms: _226  and  _228
REMARK   94  A    between atoms: _228  and  _229
REMARK   95  A    between atoms: _228  and  _231
REMARK   96  A    between atoms: _231  and  _232
REMARK   97  A    between atoms: _237  and  _239
REMARK   98  A    between atoms: _239  and  _240
REMARK   99  A    between atoms: _239  and  _242
REMARK  100  A    between atoms: _242  and  _243
REMARK  101  A    between atoms: _246  and  _248
REMARK  102  A    between atoms: _248  and  _249
REMARK  103  A    between atoms: _251  and  _253
REMARK  104  A    between atoms: _253  and  _254
REMARK  105  A    between atoms: _253  and  _256
REMARK  106  A    between atoms: _256  and  _257
REMARK  107  A    between atoms: _262  and  _263
REMARK  108  A    between atoms: _265  and  _267
REMARK  109  A    between atoms: _267  and  _268
REMARK  110  A    between atoms: _267  and  _270
REMARK  111  A    between atoms: _270  and  _271
REMARK  112  A    between atoms: _276  and  _277
REMARK  113  A    between atoms: _279  and  _281
REMARK  114  A    between atoms: _281  and  _282
REMARK  115  A    between atoms: _281  and  _284
REMARK  116  A    between atoms: _284  and  _285
REMARK  117  A    between atoms: _287  and  _289
REMARK  118  A    between atoms: _289  and  _290
REMARK  119  A    between atoms: _289  and  _292
REMARK  120  A    between atoms: _292  and  _293
REMARK                            x       y       z     vdW  Elec       q    Type
REMARK                         _______ _______ _______ _____ _____    ______ ____
ROOT
ATOM      1  O   HOH     1     -40.827  40.101  27.568  0.00  0.00    +0.000 OA
ENDROOT
TORSDOF 0
REMARK  Name = ../refined-set-2016/3tay/3tay_pocket.pdb
REMARK  120 active torsions:
REMARK  status: ('A' for Active; 'I' for Inactive)
REMARK    1  A    between atoms: _1  and  _3
REMARK    2  A    between atoms: _3  and  _4
REMARK    3  A    between atoms: _3  and  _6
REMARK    4  A    between atoms: _6  and  _7
REMARK    5  A    between atoms: _10  and  _12
REMARK    6  A    between atoms: _12  and  _13
REMARK    7  A    between atoms: _12  and  _15
REMARK    8  A    between atoms: _15  and  _16
REMARK    9  A    between atoms: _16  and  _17
REMARK   10  A    between atoms: _17  and  _18
REMARK   11  A    between atoms: _27  and  _29
REMARK   12  A    between atoms: _29  and  _30
REMARK   13  A    between atoms: _29  and  _32
REMARK   14  A    between atoms: _32  and  _33
REMARK   15  A    between atoms: _43  and  _45
REMARK   16  A    between atoms: _45  and  _46
REMARK   17  A    between atoms: _45  and  _48
REMARK   18  A    between atoms: _48  and  _49
REMARK   19  A    between atoms: _52  and  _54
REMARK   20  A    between atoms: _54  and  _55
REMARK   21  A    between atoms: _54  and  _57
REMARK   22  A    between atoms: _57  and  _58
REMARK   23  A    between atoms: _61  and  _63
REMARK   24  A    between atoms: _63  and  _64
REMARK   25  A    between atoms: _63  and  _66
REMARK   26  A    between atoms: _69  and  _71
REMARK   27  A    between atoms: _71  and  _72
REMARK   28  A    between atoms: _71  and  _74
REMARK   29  A    between atoms: _74  and  _75
REMARK   30  A    between atoms: _77  and  _79
REMARK   31  A    between atoms: _79  and  _80
REMARK   32  A    between atoms: _79  and  _82
REMARK   33  A    between atoms: _82  and  _83
REMARK   34  A    between atoms: _83  and  _84
REMARK   35  A    between atoms: _84  and  _85
REMARK   36  A    between atoms: _85  and  _86
REMARK   37  A    between atoms: _90  and  _92
REMARK   38  A    between atoms: _92  and  _93
REMARK   39  A    between atoms: _92  and  _95
REMARK   40  A    between atoms: _95  and  _96
REMARK   41  A    between atoms: _99  and  _101
REMARK   42  A    between atoms: _101  and  _102
REMARK   43  A    between atoms: _101  and  _104
REMARK   44  A    between atoms: _104  and  _105
REMARK   45  A    between atoms: _108  and  _110
REMARK   46  A    between atoms: _110  and  _111
REMARK   47  A    between atoms: _110  and  _113
REMARK   48  A    between atoms: _113  and  _114
REMARK   49  A    between atoms: _114  and  _115
REMARK   50  A    between atoms: _120  and  _122
REMARK   51  A    between atoms: _122  and  _123
REMARK   52  A    between atoms: _122  and  _125
REMARK   53  A    between atoms: _125  and  _126
REMARK   54  A    between atoms: _131  and  _133
REMARK   55  A    between atoms: _133  and  _134
REMARK   56  A    between atoms: _134  and  _135
REMARK   57  A    between atoms: _134  and  _136
REMARK   58  A    between atoms: _136  and  _138
REMARK   59  A    between atoms: _138  and  _139
REMARK   60  A    between atoms: _138  and  _141
REMARK   61  A    between atoms: _141  and  _142
REMARK   62  A    between atoms: _144  and  _146
REMARK   63  A    between atoms: _146  and  _147
REMARK   64  A    between atoms: _146  and  _149
REMARK   65  A    between atoms: _149  and  _150
REMARK   66  A    between atoms: _155  and  _156
REMARK   67  A    between atoms: _158  and  _160
REMARK   68  A    between atoms: _160  and  _161
REMARK   69  A    between atoms: _163  and  _165
REMARK   70  A    between atoms: _165  and  _166
REMARK   71  A    between atoms: _165  and  _168
REMARK   72  A    between atoms: _168  and  _169
REMARK   73  A    between atoms: _169  and  _170
REMARK   74  A    between atoms: _170  and  _171
REMARK   75  A    between atoms: _180  and  _182
REMARK   76  A    between atoms: _182  and  _183
REMARK   77  A    between atoms: _182  and  _185
REMARK   78  A    between atoms: _185  and  _186
REMARK   79  A    between atoms: _189  and  _191
REMARK   80  A    between atoms: _191  and  _192
REMARK   81  A    between atoms: _191  and  _194
REMARK   82  A    between atoms: _194  and  _195
REMARK   83  A    between atoms: _200  and  _201
REMARK   84  A    between atoms: _203  and  _205
REMARK   85  A    between atoms: _205  and  _206
REMARK   86  A    between atoms: _205  and  _208
REMARK   87  A    between atoms: _208  and  _209
REMARK   88  A    between atoms: _212  and  _214
REMARK   89  A    between atoms: _214  and  _215
REMARK   90  A    between atoms: _214  and  _217
REMARK   91  A    between atoms: _217  and  _218
REMARK   92  A    between atoms: _223  and  _224
REMARK   93  A    between atoms: _226  and  _228
REMARK   94  A    between atoms: _228  and  _229
REMARK   95  A    between atoms: _228  and  _231
REMARK   96  A    between atoms: _231  and  _232
REMARK   97  A    between atoms: _237  and  _239
REMARK   98  A    between atoms: _239  and  _240
REMARK   99  A    between atoms: _239  and  _242
REMARK  100  A    between atoms: _242  and  _243
REMARK  101  A    between atoms: _246  and  _248
REMARK  102  A    between atoms: _248  and  _249
REMARK  103  A    between atoms: _251  and  _253
REMARK  104  A    between atoms: _253  and  _254
REMARK  105  A    between atoms: _253  and  _256
REMARK  106  A    between atoms: _256  and  _257
REMARK  107  A    between atoms: _262  and  _263
REMARK  108  A    between atoms: _265  and  _267
REMARK  109  A    between atoms: _267  and  _268
REMARK  110  A    between atoms: _267  and  _270
REMARK  111  A    between atoms: _270  and  _271
REMARK  112  A    between atoms: _276  and  _277
REMARK  113  A    between atoms: _279  and  _281
REMARK  114  A    between atoms: _281  and  _282
REMARK  115  A    between atoms: _281  and  _284
REMARK  116  A    between atoms: _284  and  _285
REMARK  117  A    between atoms: _287  and  _289
REMARK  118  A    between atoms: _289  and  _290
REMARK  119  A    between atoms: _289  and  _292
REMARK  120  A    between atoms: _292  and  _293
REMARK                            x       y       z     vdW  Elec       q    Type
REMARK                         _______ _______ _______ _____ _____    ______ ____
ROOT
ATOM      1  O   HOH     1     -29.191  46.180  22.177  0.00  0.00    +0.000 OA
ENDROOT
TORSDOF 0
REMARK  Name = ../refined-set-2016/3tay/3tay_pocket.pdb
REMARK  120 active torsions:
REMARK  status: ('A' for Active; 'I' for Inactive)
REMARK    1  A    between atoms: _1  and  _3
REMARK    2  A    between atoms: _3  and  _4
REMARK    3  A    between atoms: _3  and  _6
REMARK    4  A    between atoms: _6  and  _7
REMARK    5  A    between atoms: _10  and  _12
REMARK    6  A    between atoms: _12  and  _13
REMARK    7  A    between atoms: _12  and  _15
REMARK    8  A    between atoms: _15  and  _16
REMARK    9  A    between atoms: _16  and  _17
REMARK   10  A    between atoms: _17  and  _18
REMARK   11  A    between atoms: _27  and  _29
REMARK   12  A    between atoms: _29  and  _30
REMARK   13  A    between atoms: _29  and  _32
REMARK   14  A    between atoms: _32  and  _33
REMARK   15  A    between atoms: _43  and  _45
REMARK   16  A    between atoms: _45  and  _46
REMARK   17  A    between atoms: _45  and  _48
REMARK   18  A    between atoms: _48  and  _49
REMARK   19  A    between atoms: _52  and  _54
REMARK   20  A    between atoms: _54  and  _55
REMARK   21  A    between atoms: _54  and  _57
REMARK   22  A    between atoms: _57  and  _58
REMARK   23  A    between atoms: _61  and  _63
REMARK   24  A    between atoms: _63  and  _64
REMARK   25  A    between atoms: _63  and  _66
REMARK   26  A    between atoms: _69  and  _71
REMARK   27  A    between atoms: _71  and  _72
REMARK   28  A    between atoms: _71  and  _74
REMARK   29  A    between atoms: _74  and  _75
REMARK   30  A    between atoms: _77  and  _79
REMARK   31  A    between atoms: _79  and  _80
REMARK   32  A    between atoms: _79  and  _82
REMARK   33  A    between atoms: _82  and  _83
REMARK   34  A    between atoms: _83  and  _84
REMARK   35  A    between atoms: _84  and  _85
REMARK   36  A    between atoms: _85  and  _86
REMARK   37  A    between atoms: _90  and  _92
REMARK   38  A    between atoms: _92  and  _93
REMARK   39  A    between atoms: _92  and  _95
REMARK   40  A    between atoms: _95  and  _96
REMARK   41  A    between atoms: _99  and  _101
REMARK   42  A    between atoms: _101  and  _102
REMARK   43  A    between atoms: _101  and  _104
REMARK   44  A    between atoms: _104  and  _105
REMARK   45  A    between atoms: _108  and  _110
REMARK   46  A    between atoms: _110  and  _111
REMARK   47  A    between atoms: _110  and  _113
REMARK   48  A    between atoms: _113  and  _114
REMARK   49  A    between atoms: _114  and  _115
REMARK   50  A    between atoms: _120  and  _122
REMARK   51  A    between atoms: _122  and  _123
REMARK   52  A    between atoms: _122  and  _125
REMARK   53  A    between atoms: _125  and  _126
REMARK   54  A    between atoms: _131  and  _133
REMARK   55  A    between atoms: _133  and  _134
REMARK   56  A    between atoms: _134  and  _135
REMARK   57  A    between atoms: _134  and  _136
REMARK   58  A    between atoms: _136  and  _138
REMARK   59  A    between atoms: _138  and  _139
REMARK   60  A    between atoms: _138  and  _141
REMARK   61  A    between atoms: _141  and  _142
REMARK   62  A    between atoms: _144  and  _146
REMARK   63  A    between atoms: _146  and  _147
REMARK   64  A    between atoms: _146  and  _149
REMARK   65  A    between atoms: _149  and  _150
REMARK   66  A    between atoms: _155  and  _156
REMARK   67  A    between atoms: _158  and  _160
REMARK   68  A    between atoms: _160  and  _161
REMARK   69  A    between atoms: _163  and  _165
REMARK   70  A    between atoms: _165  and  _166
REMARK   71  A    between atoms: _165  and  _168
REMARK   72  A    between atoms: _168  and  _169
REMARK   73  A    between atoms: _169  and  _170
REMARK   74  A    between atoms: _170  and  _171
REMARK   75  A    between atoms: _180  and  _182
REMARK   76  A    between atoms: _182  and  _183
REMARK   77  A    between atoms: _182  and  _185
REMARK   78  A    between atoms: _185  and  _186
REMARK   79  A    between atoms: _189  and  _191
REMARK   80  A    between atoms: _191  and  _192
REMARK   81  A    between atoms: _191  and  _194
REMARK   82  A    between atoms: _194  and  _195
REMARK   83  A    between atoms: _200  and  _201
REMARK   84  A    between atoms: _203  and  _205
REMARK   85  A    between atoms: _205  and  _206
REMARK   86  A    between atoms: _205  and  _208
REMARK   87  A    between atoms: _208  and  _209
REMARK   88  A    between atoms: _212  and  _214
REMARK   89  A    between atoms: _214  and  _215
REMARK   90  A    between atoms: _214  and  _217
REMARK   91  A    between atoms: _217  and  _218
REMARK   92  A    between atoms: _223  and  _224
REMARK   93  A    between atoms: _226  and  _228
REMARK   94  A    between atoms: _228  and  _229
REMARK   95  A    between atoms: _228  and  _231
REMARK   96  A    between atoms: _231  and  _232
REMARK   97  A    between atoms: _237  and  _239
REMARK   98  A    between atoms: _239  and  _240
REMARK   99  A    between atoms: _239  and  _242
REMARK  100  A    between atoms: _242  and  _243
REMARK  101  A    between atoms: _246  and  _248
REMARK  102  A    between atoms: _248  and  _249
REMARK  103  A    between atoms: _251  and  _253
REMARK  104  A    between atoms: _253  and  _254
REMARK  105  A    between atoms: _253  and  _256
REMARK  106  A    between atoms: _256  and  _257
REMARK  107  A    between atoms: _262  and  _263
REMARK  108  A    between atoms: _265  and  _267
REMARK  109  A    between atoms: _267  and  _268
REMARK  110  A    between atoms: _267  and  _270
REMARK  111  A    between atoms: _270  and  _271
REMARK  112  A    between atoms: _276  and  _277
REMARK  113  A    between atoms: _279  and  _281
REMARK  114  A    between atoms: _281  and  _282
REMARK  115  A    between atoms: _281  and  _284
REMARK  116  A    between atoms: _284  and  _285
REMARK  117  A    between atoms: _287  and  _289
REMARK  118  A    between atoms: _289  and  _290
REMARK  119  A    between atoms: _289  and  _292
REMARK  120  A    between atoms: _292  and  _293
REMARK                            x       y       z     vdW  Elec       q    Type
REMARK                         _______ _______ _______ _____ _____    ______ ____
ROOT
ATOM      1  O   HOH     1     -29.224  48.710  21.721  0.00  0.00    +0.000 OA
ENDROOT
TORSDOF 0
REMARK  Name = ../refined-set-2016/3tay/3tay_pocket.pdb
REMARK  120 active torsions:
REMARK  status: ('A' for Active; 'I' for Inactive)
REMARK    1  A    between atoms: _1  and  _3
REMARK    2  A    between atoms: _3  and  _4
REMARK    3  A    between atoms: _3  and  _6
REMARK    4  A    between atoms: _6  and  _7
REMARK    5  A    between atoms: _10  and  _12
REMARK    6  A    between atoms: _12  and  _13
REMARK    7  A    between atoms: _12  and  _15
REMARK    8  A    between atoms: _15  and  _16
REMARK    9  A    between atoms: _16  and  _17
REMARK   10  A    between atoms: _17  and  _18
REMARK   11  A    between atoms: _27  and  _29
REMARK   12  A    between atoms: _29  and  _30
REMARK   13  A    between atoms: _29  and  _32
REMARK   14  A    between atoms: _32  and  _33
REMARK   15  A    between atoms: _43  and  _45
REMARK   16  A    between atoms: _45  and  _46
REMARK   17  A    between atoms: _45  and  _48
REMARK   18  A    between atoms: _48  and  _49
REMARK   19  A    between atoms: _52  and  _54
REMARK   20  A    between atoms: _54  and  _55
REMARK   21  A    between atoms: _54  and  _57
REMARK   22  A    between atoms: _57  and  _58
REMARK   23  A    between atoms: _61  and  _63
REMARK   24  A    between atoms: _63  and  _64
REMARK   25  A    between atoms: _63  and  _66
REMARK   26  A    between atoms: _69  and  _71
REMARK   27  A    between atoms: _71  and  _72
REMARK   28  A    between atoms: _71  and  _74
REMARK   29  A    between atoms: _74  and  _75
REMARK   30  A    between atoms: _77  and  _79
REMARK   31  A    between atoms: _79  and  _80
REMARK   32  A    between atoms: _79  and  _82
REMARK   33  A    between atoms: _82  and  _83
REMARK   34  A    between atoms: _83  and  _84
REMARK   35  A    between atoms: _84  and  _85
REMARK   36  A    between atoms: _85  and  _86
REMARK   37  A    between atoms: _90  and  _92
REMARK   38  A    between atoms: _92  and  _93
REMARK   39  A    between atoms: _92  and  _95
REMARK   40  A    between atoms: _95  and  _96
REMARK   41  A    between atoms: _99  and  _101
REMARK   42  A    between atoms: _101  and  _102
REMARK   43  A    between atoms: _101  and  _104
REMARK   44  A    between atoms: _104  and  _105
REMARK   45  A    between atoms: _108  and  _110
REMARK   46  A    between atoms: _110  and  _111
REMARK   47  A    between atoms: _110  and  _113
REMARK   48  A    between atoms: _113  and  _114
REMARK   49  A    between atoms: _114  and  _115
REMARK   50  A    between atoms: _120  and  _122
REMARK   51  A    between atoms: _122  and  _123
REMARK   52  A    between atoms: _122  and  _125
REMARK   53  A    between atoms: _125  and  _126
REMARK   54  A    between atoms: _131  and  _133
REMARK   55  A    between atoms: _133  and  _134
REMARK   56  A    between atoms: _134  and  _135
REMARK   57  A    between atoms: _134  and  _136
REMARK   58  A    between atoms: _136  and  _138
REMARK   59  A    between atoms: _138  and  _139
REMARK   60  A    between atoms: _138  and  _141
REMARK   61  A    between atoms: _141  and  _142
REMARK   62  A    between atoms: _144  and  _146
REMARK   63  A    between atoms: _146  and  _147
REMARK   64  A    between atoms: _146  and  _149
REMARK   65  A    between atoms: _149  and  _150
REMARK   66  A    between atoms: _155  and  _156
REMARK   67  A    between atoms: _158  and  _160
REMARK   68  A    between atoms: _160  and  _161
REMARK   69  A    between atoms: _163  and  _165
REMARK   70  A    between atoms: _165  and  _166
REMARK   71  A    between atoms: _165  and  _168
REMARK   72  A    between atoms: _168  and  _169
REMARK   73  A    between atoms: _169  and  _170
REMARK   74  A    between atoms: _170  and  _171
REMARK   75  A    between atoms: _180  and  _182
REMARK   76  A    between atoms: _182  and  _183
REMARK   77  A    between atoms: _182  and  _185
REMARK   78  A    between atoms: _185  and  _186
REMARK   79  A    between atoms: _189  and  _191
REMARK   80  A    between atoms: _191  and  _192
REMARK   81  A    between atoms: _191  and  _194
REMARK   82  A    between atoms: _194  and  _195
REMARK   83  A    between atoms: _200  and  _201
REMARK   84  A    between atoms: _203  and  _205
REMARK   85  A    between atoms: _205  and  _206
REMARK   86  A    between atoms: _205  and  _208
REMARK   87  A    between atoms: _208  and  _209
REMARK   88  A    between atoms: _212  and  _214
REMARK   89  A    between atoms: _214  and  _215
REMARK   90  A    between atoms: _214  and  _217
REMARK   91  A    between atoms: _217  and  _218
REMARK   92  A    between atoms: _223  and  _224
REMARK   93  A    between atoms: _226  and  _228
REMARK   94  A    between atoms: _228  and  _229
REMARK   95  A    between atoms: _228  and  _231
REMARK   96  A    between atoms: _231  and  _232
REMARK   97  A    between atoms: _237  and  _239
REMARK   98  A    between atoms: _239  and  _240
REMARK   99  A    between atoms: _239  and  _242
REMARK  100  A    between atoms: _242  and  _243
REMARK  101  A    between atoms: _246  and  _248
REMARK  102  A    between atoms: _248  and  _249
REMARK  103  A    between atoms: _251  and  _253
REMARK  104  A    between atoms: _253  and  _254
REMARK  105  A    between atoms: _253  and  _256
REMARK  106  A    between atoms: _256  and  _257
REMARK  107  A    between atoms: _262  and  _263
REMARK  108  A    between atoms: _265  and  _267
REMARK  109  A    between atoms: _267  and  _268
REMARK  110  A    between atoms: _267  and  _270
REMARK  111  A    between atoms: _270  and  _271
REMARK  112  A    between atoms: _276  and  _277
REMARK  113  A    between atoms: _279  and  _281
REMARK  114  A    between atoms: _281  and  _282
REMARK  115  A    between atoms: _281  and  _284
REMARK  116  A    between atoms: _284  and  _285
REMARK  117  A    between atoms: _287  and  _289
REMARK  118  A    between atoms: _289  and  _290
REMARK  119  A    between atoms: _289  and  _292
REMARK  120  A    between atoms: _292  and  _293
REMARK                            x       y       z     vdW  Elec       q    Type
REMARK                         _______ _______ _______ _____ _____    ______ ____
ROOT
ATOM      1  O   HOH     1     -27.839  46.968  26.853  0.00  0.00    +0.000 OA
ENDROOT
TORSDOF 0
REMARK  Name = ../refined-set-2016/3tay/3tay_pocket.pdb
REMARK  120 active torsions:
REMARK  status: ('A' for Active; 'I' for Inactive)
REMARK    1  A    between atoms: _1  and  _3
REMARK    2  A    between atoms: _3  and  _4
REMARK    3  A    between atoms: _3  and  _6
REMARK    4  A    between atoms: _6  and  _7
REMARK    5  A    between atoms: _10  and  _12
REMARK    6  A    between atoms: _12  and  _13
REMARK    7  A    between atoms: _12  and  _15
REMARK    8  A    between atoms: _15  and  _16
REMARK    9  A    between atoms: _16  and  _17
REMARK   10  A    between atoms: _17  and  _18
REMARK   11  A    between atoms: _27  and  _29
REMARK   12  A    between atoms: _29  and  _30
REMARK   13  A    between atoms: _29  and  _32
REMARK   14  A    between atoms: _32  and  _33
REMARK   15  A    between atoms: _43  and  _45
REMARK   16  A    between atoms: _45  and  _46
REMARK   17  A    between atoms: _45  and  _48
REMARK   18  A    between atoms: _48  and  _49
REMARK   19  A    between atoms: _52  and  _54
REMARK   20  A    between atoms: _54  and  _55
REMARK   21  A    between atoms: _54  and  _57
REMARK   22  A    between atoms: _57  and  _58
REMARK   23  A    between atoms: _61  and  _63
REMARK   24  A    between atoms: _63  and  _64
REMARK   25  A    between atoms: _63  and  _66
REMARK   26  A    between atoms: _69  and  _71
REMARK   27  A    between atoms: _71  and  _72
REMARK   28  A    between atoms: _71  and  _74
REMARK   29  A    between atoms: _74  and  _75
REMARK   30  A    between atoms: _77  and  _79
REMARK   31  A    between atoms: _79  and  _80
REMARK   32  A    between atoms: _79  and  _82
REMARK   33  A    between atoms: _82  and  _83
REMARK   34  A    between atoms: _83  and  _84
REMARK   35  A    between atoms: _84  and  _85
REMARK   36  A    between atoms: _85  and  _86
REMARK   37  A    between atoms: _90  and  _92
REMARK   38  A    between atoms: _92  and  _93
REMARK   39  A    between atoms: _92  and  _95
REMARK   40  A    between atoms: _95  and  _96
REMARK   41  A    between atoms: _99  and  _101
REMARK   42  A    between atoms: _101  and  _102
REMARK   43  A    between atoms: _101  and  _104
REMARK   44  A    between atoms: _104  and  _105
REMARK   45  A    between atoms: _108  and  _110
REMARK   46  A    between atoms: _110  and  _111
REMARK   47  A    between atoms: _110  and  _113
REMARK   48  A    between atoms: _113  and  _114
REMARK   49  A    between atoms: _114  and  _115
REMARK   50  A    between atoms: _120  and  _122
REMARK   51  A    between atoms: _122  and  _123
REMARK   52  A    between atoms: _122  and  _125
REMARK   53  A    between atoms: _125  and  _126
REMARK   54  A    between atoms: _131  and  _133
REMARK   55  A    between atoms: _133  and  _134
REMARK   56  A    between atoms: _134  and  _135
REMARK   57  A    between atoms: _134  and  _136
REMARK   58  A    between atoms: _136  and  _138
REMARK   59  A    between atoms: _138  and  _139
REMARK   60  A    between atoms: _138  and  _141
REMARK   61  A    between atoms: _141  and  _142
REMARK   62  A    between atoms: _144  and  _146
REMARK   63  A    between atoms: _146  and  _147
REMARK   64  A    between atoms: _146  and  _149
REMARK   65  A    between atoms: _149  and  _150
REMARK   66  A    between atoms: _155  and  _156
REMARK   67  A    between atoms: _158  and  _160
REMARK   68  A    between atoms: _160  and  _161
REMARK   69  A    between atoms: _163  and  _165
REMARK   70  A    between atoms: _165  and  _166
REMARK   71  A    between atoms: _165  and  _168
REMARK   72  A    between atoms: _168  and  _169
REMARK   73  A    between atoms: _169  and  _170
REMARK   74  A    between atoms: _170  and  _171
REMARK   75  A    between atoms: _180  and  _182
REMARK   76  A    between atoms: _182  and  _183
REMARK   77  A    between atoms: _182  and  _185
REMARK   78  A    between atoms: _185  and  _186
REMARK   79  A    between atoms: _189  and  _191
REMARK   80  A    between atoms: _191  and  _192
REMARK   81  A    between atoms: _191  and  _194
REMARK   82  A    between atoms: _194  and  _195
REMARK   83  A    between atoms: _200  and  _201
REMARK   84  A    between atoms: _203  and  _205
REMARK   85  A    between atoms: _205  and  _206
REMARK   86  A    between atoms: _205  and  _208
REMARK   87  A    between atoms: _208  and  _209
REMARK   88  A    between atoms: _212  and  _214
REMARK   89  A    between atoms: _214  and  _215
REMARK   90  A    between atoms: _214  and  _217
REMARK   91  A    between atoms: _217  and  _218
REMARK   92  A    between atoms: _223  and  _224
REMARK   93  A    between atoms: _226  and  _228
REMARK   94  A    between atoms: _228  and  _229
REMARK   95  A    between atoms: _228  and  _231
REMARK   96  A    between atoms: _231  and  _232
REMARK   97  A    between atoms: _237  and  _239
REMARK   98  A    between atoms: _239  and  _240
REMARK   99  A    between atoms: _239  and  _242
REMARK  100  A    between atoms: _242  and  _243
REMARK  101  A    between atoms: _246  and  _248
REMARK  102  A    between atoms: _248  and  _249
REMARK  103  A    between atoms: _251  and  _253
REMARK  104  A    between atoms: _253  and  _254
REMARK  105  A    between atoms: _253  and  _256
REMARK  106  A    between atoms: _256  and  _257
REMARK  107  A    between atoms: _262  and  _263
REMARK  108  A    between atoms: _265  and  _267
REMARK  109  A    between atoms: _267  and  _268
REMARK  110  A    between atoms: _267  and  _270
REMARK  111  A    between atoms: _270  and  _271
REMARK  112  A    between atoms: _276  and  _277
REMARK  113  A    between atoms: _279  and  _281
REMARK  114  A    between atoms: _281  and  _282
REMARK  115  A    between atoms: _281  and  _284
REMARK  116  A    between atoms: _284  and  _285
REMARK  117  A    between atoms: _287  and  _289
REMARK  118  A    between atoms: _289  and  _290
REMARK  119  A    between atoms: _289  and  _292
REMARK  120  A    between atoms: _292  and  _293
REMARK                            x       y       z     vdW  Elec       q    Type
REMARK                         _______ _______ _______ _____ _____    ______ ____
ROOT
ATOM      1  O   HOH     1     -29.816  47.006  28.541  0.00  0.00    +0.000 OA
ENDROOT
TORSDOF 0
REMARK  Name = ../refined-set-2016/3tay/3tay_pocket.pdb
REMARK  120 active torsions:
REMARK  status: ('A' for Active; 'I' for Inactive)
REMARK    1  A    between atoms: _1  and  _3
REMARK    2  A    between atoms: _3  and  _4
REMARK    3  A    between atoms: _3  and  _6
REMARK    4  A    between atoms: _6  and  _7
REMARK    5  A    between atoms: _10  and  _12
REMARK    6  A    between atoms: _12  and  _13
REMARK    7  A    between atoms: _12  and  _15
REMARK    8  A    between atoms: _15  and  _16
REMARK    9  A    between atoms: _16  and  _17
REMARK   10  A    between atoms: _17  and  _18
REMARK   11  A    between atoms: _27  and  _29
REMARK   12  A    between atoms: _29  and  _30
REMARK   13  A    between atoms: _29  and  _32
REMARK   14  A    between atoms: _32  and  _33
REMARK   15  A    between atoms: _43  and  _45
REMARK   16  A    between atoms: _45  and  _46
REMARK   17  A    between atoms: _45  and  _48
REMARK   18  A    between atoms: _48  and  _49
REMARK   19  A    between atoms: _52  and  _54
REMARK   20  A    between atoms: _54  and  _55
REMARK   21  A    between atoms: _54  and  _57
REMARK   22  A    between atoms: _57  and  _58
REMARK   23  A    between atoms: _61  and  _63
REMARK   24  A    between atoms: _63  and  _64
REMARK   25  A    between atoms: _63  and  _66
REMARK   26  A    between atoms: _69  and  _71
REMARK   27  A    between atoms: _71  and  _72
REMARK   28  A    between atoms: _71  and  _74
REMARK   29  A    between atoms: _74  and  _75
REMARK   30  A    between atoms: _77  and  _79
REMARK   31  A    between atoms: _79  and  _80
REMARK   32  A    between atoms: _79  and  _82
REMARK   33  A    between atoms: _82  and  _83
REMARK   34  A    between atoms: _83  and  _84
REMARK   35  A    between atoms: _84  and  _85
REMARK   36  A    between atoms: _85  and  _86
REMARK   37  A    between atoms: _90  and  _92
REMARK   38  A    between atoms: _92  and  _93
REMARK   39  A    between atoms: _92  and  _95
REMARK   40  A    between atoms: _95  and  _96
REMARK   41  A    between atoms: _99  and  _101
REMARK   42  A    between atoms: _101  and  _102
REMARK   43  A    between atoms: _101  and  _104
REMARK   44  A    between atoms: _104  and  _105
REMARK   45  A    between atoms: _108  and  _110
REMARK   46  A    between atoms: _110  and  _111
REMARK   47  A    between atoms: _110  and  _113
REMARK   48  A    between atoms: _113  and  _114
REMARK   49  A    between atoms: _114  and  _115
REMARK   50  A    between atoms: _120  and  _122
REMARK   51  A    between atoms: _122  and  _123
REMARK   52  A    between atoms: _122  and  _125
REMARK   53  A    between atoms: _125  and  _126
REMARK   54  A    between atoms: _131  and  _133
REMARK   55  A    between atoms: _133  and  _134
REMARK   56  A    between atoms: _134  and  _135
REMARK   57  A    between atoms: _134  and  _136
REMARK   58  A    between atoms: _136  and  _138
REMARK   59  A    between atoms: _138  and  _139
REMARK   60  A    between atoms: _138  and  _141
REMARK   61  A    between atoms: _141  and  _142
REMARK   62  A    between atoms: _144  and  _146
REMARK   63  A    between atoms: _146  and  _147
REMARK   64  A    between atoms: _146  and  _149
REMARK   65  A    between atoms: _149  and  _150
REMARK   66  A    between atoms: _155  and  _156
REMARK   67  A    between atoms: _158  and  _160
REMARK   68  A    between atoms: _160  and  _161
REMARK   69  A    between atoms: _163  and  _165
REMARK   70  A    between atoms: _165  and  _166
REMARK   71  A    between atoms: _165  and  _168
REMARK   72  A    between atoms: _168  and  _169
REMARK   73  A    between atoms: _169  and  _170
REMARK   74  A    between atoms: _170  and  _171
REMARK   75  A    between atoms: _180  and  _182
REMARK   76  A    between atoms: _182  and  _183
REMARK   77  A    between atoms: _182  and  _185
REMARK   78  A    between atoms: _185  and  _186
REMARK   79  A    between atoms: _189  and  _191
REMARK   80  A    between atoms: _191  and  _192
REMARK   81  A    between atoms: _191  and  _194
REMARK   82  A    between atoms: _194  and  _195
REMARK   83  A    between atoms: _200  and  _201
REMARK   84  A    between atoms: _203  and  _205
REMARK   85  A    between atoms: _205  and  _206
REMARK   86  A    between atoms: _205  and  _208
REMARK   87  A    between atoms: _208  and  _209
REMARK   88  A    between atoms: _212  and  _214
REMARK   89  A    between atoms: _214  and  _215
REMARK   90  A    between atoms: _214  and  _217
REMARK   91  A    between atoms: _217  and  _218
REMARK   92  A    between atoms: _223  and  _224
REMARK   93  A    between atoms: _226  and  _228
REMARK   94  A    between atoms: _228  and  _229
REMARK   95  A    between atoms: _228  and  _231
REMARK   96  A    between atoms: _231  and  _232
REMARK   97  A    between atoms: _237  and  _239
REMARK   98  A    between atoms: _239  and  _240
REMARK   99  A    between atoms: _239  and  _242
REMARK  100  A    between atoms: _242  and  _243
REMARK  101  A    between atoms: _246  and  _248
REMARK  102  A    between atoms: _248  and  _249
REMARK  103  A    between atoms: _251  and  _253
REMARK  104  A    between atoms: _253  and  _254
REMARK  105  A    between atoms: _253  and  _256
REMARK  106  A    between atoms: _256  and  _257
REMARK  107  A    between atoms: _262  and  _263
REMARK  108  A    between atoms: _265  and  _267
REMARK  109  A    between atoms: _267  and  _268
REMARK  110  A    between atoms: _267  and  _270
REMARK  111  A    between atoms: _270  and  _271
REMARK  112  A    between atoms: _276  and  _277
REMARK  113  A    between atoms: _279  and  _281
REMARK  114  A    between atoms: _281  and  _282
REMARK  115  A    between atoms: _281  and  _284
REMARK  116  A    between atoms: _284  and  _285
REMARK  117  A    between atoms: _287  and  _289
REMARK  118  A    between atoms: _289  and  _290
REMARK  119  A    between atoms: _289  and  _292
REMARK  120  A    between atoms: _292  and  _293
REMARK                            x       y       z     vdW  Elec       q    Type
REMARK                         _______ _______ _______ _____ _____    ______ ____
ROOT
ATOM      1  O   HOH     1     -24.163  47.346  18.962  0.00  0.00    +0.000 OA
ENDROOT
TORSDOF 0
REMARK  Name = ../refined-set-2016/3tay/3tay_pocket.pdb
REMARK  120 active torsions:
REMARK  status: ('A' for Active; 'I' for Inactive)
REMARK    1  A    between atoms: _1  and  _3
REMARK    2  A    between atoms: _3  and  _4
REMARK    3  A    between atoms: _3  and  _6
REMARK    4  A    between atoms: _6  and  _7
REMARK    5  A    between atoms: _10  and  _12
REMARK    6  A    between atoms: _12  and  _13
REMARK    7  A    between atoms: _12  and  _15
REMARK    8  A    between atoms: _15  and  _16
REMARK    9  A    between atoms: _16  and  _17
REMARK   10  A    between atoms: _17  and  _18
REMARK   11  A    between atoms: _27  and  _29
REMARK   12  A    between atoms: _29  and  _30
REMARK   13  A    between atoms: _29  and  _32
REMARK   14  A    between atoms: _32  and  _33
REMARK   15  A    between atoms: _43  and  _45
REMARK   16  A    between atoms: _45  and  _46
REMARK   17  A    between atoms: _45  and  _48
REMARK   18  A    between atoms: _48  and  _49
REMARK   19  A    between atoms: _52  and  _54
REMARK   20  A    between atoms: _54  and  _55
REMARK   21  A    between atoms: _54  and  _57
REMARK   22  A    between atoms: _57  and  _58
REMARK   23  A    between atoms: _61  and  _63
REMARK   24  A    between atoms: _63  and  _64
REMARK   25  A    between atoms: _63  and  _66
REMARK   26  A    between atoms: _69  and  _71
REMARK   27  A    between atoms: _71  and  _72
REMARK   28  A    between atoms: _71  and  _74
REMARK   29  A    between atoms: _74  and  _75
REMARK   30  A    between atoms: _77  and  _79
REMARK   31  A    between atoms: _79  and  _80
REMARK   32  A    between atoms: _79  and  _82
REMARK   33  A    between atoms: _82  and  _83
REMARK   34  A    between atoms: _83  and  _84
REMARK   35  A    between atoms: _84  and  _85
REMARK   36  A    between atoms: _85  and  _86
REMARK   37  A    between atoms: _90  and  _92
REMARK   38  A    between atoms: _92  and  _93
REMARK   39  A    between atoms: _92  and  _95
REMARK   40  A    between atoms: _95  and  _96
REMARK   41  A    between atoms: _99  and  _101
REMARK   42  A    between atoms: _101  and  _102
REMARK   43  A    between atoms: _101  and  _104
REMARK   44  A    between atoms: _104  and  _105
REMARK   45  A    between atoms: _108  and  _110
REMARK   46  A    between atoms: _110  and  _111
REMARK   47  A    between atoms: _110  and  _113
REMARK   48  A    between atoms: _113  and  _114
REMARK   49  A    between atoms: _114  and  _115
REMARK   50  A    between atoms: _120  and  _122
REMARK   51  A    between atoms: _122  and  _123
REMARK   52  A    between atoms: _122  and  _125
REMARK   53  A    between atoms: _125  and  _126
REMARK   54  A    between atoms: _131  and  _133
REMARK   55  A    between atoms: _133  and  _134
REMARK   56  A    between atoms: _134  and  _135
REMARK   57  A    between atoms: _134  and  _136
REMARK   58  A    between atoms: _136  and  _138
REMARK   59  A    between atoms: _138  and  _139
REMARK   60  A    between atoms: _138  and  _141
REMARK   61  A    between atoms: _141  and  _142
REMARK   62  A    between atoms: _144  and  _146
REMARK   63  A    between atoms: _146  and  _147
REMARK   64  A    between atoms: _146  and  _149
REMARK   65  A    between atoms: _149  and  _150
REMARK   66  A    between atoms: _155  and  _156
REMARK   67  A    between atoms: _158  and  _160
REMARK   68  A    between atoms: _160  and  _161
REMARK   69  A    between atoms: _163  and  _165
REMARK   70  A    between atoms: _165  and  _166
REMARK   71  A    between atoms: _165  and  _168
REMARK   72  A    between atoms: _168  and  _169
REMARK   73  A    between atoms: _169  and  _170
REMARK   74  A    between atoms: _170  and  _171
REMARK   75  A    between atoms: _180  and  _182
REMARK   76  A    between atoms: _182  and  _183
REMARK   77  A    between atoms: _182  and  _185
REMARK   78  A    between atoms: _185  and  _186
REMARK   79  A    between atoms: _189  and  _191
REMARK   80  A    between atoms: _191  and  _192
REMARK   81  A    between atoms: _191  and  _194
REMARK   82  A    between atoms: _194  and  _195
REMARK   83  A    between atoms: _200  and  _201
REMARK   84  A    between atoms: _203  and  _205
REMARK   85  A    between atoms: _205  and  _206
REMARK   86  A    between atoms: _205  and  _208
REMARK   87  A    between atoms: _208  and  _209
REMARK   88  A    between atoms: _212  and  _214
REMARK   89  A    between atoms: _214  and  _215
REMARK   90  A    between atoms: _214  and  _217
REMARK   91  A    between atoms: _217  and  _218
REMARK   92  A    between atoms: _223  and  _224
REMARK   93  A    between atoms: _226  and  _228
REMARK   94  A    between atoms: _228  and  _229
REMARK   95  A    between atoms: _228  and  _231
REMARK   96  A    between atoms: _231  and  _232
REMARK   97  A    between atoms: _237  and  _239
REMARK   98  A    between atoms: _239  and  _240
REMARK   99  A    between atoms: _239  and  _242
REMARK  100  A    between atoms: _242  and  _243
REMARK  101  A    between atoms: _246  and  _248
REMARK  102  A    between atoms: _248  and  _249
REMARK  103  A    between atoms: _251  and  _253
REMARK  104  A    between atoms: _253  and  _254
REMARK  105  A    between atoms: _253  and  _256
REMARK  106  A    between atoms: _256  and  _257
REMARK  107  A    between atoms: _262  and  _263
REMARK  108  A    between atoms: _265  and  _267
REMARK  109  A    between atoms: _267  and  _268
REMARK  110  A    between atoms: _267  and  _270
REMARK  111  A    between atoms: _270  and  _271
REMARK  112  A    between atoms: _276  and  _277
REMARK  113  A    between atoms: _279  and  _281
REMARK  114  A    between atoms: _281  and  _282
REMARK  115  A    between atoms: _281  and  _284
REMARK  116  A    between atoms: _284  and  _285
REMARK  117  A    between atoms: _287  and  _289
REMARK  118  A    between atoms: _289  and  _290
REMARK  119  A    between atoms: _289  and  _292
REMARK  120  A    between atoms: _292  and  _293
REMARK                            x       y       z     vdW  Elec       q    Type
REMARK                         _______ _______ _______ _____ _____    ______ ____
ROOT
ATOM      1  O   HOH     1     -24.369  48.254  24.008  0.00  0.00    +0.000 OA
ENDROOT
TORSDOF 0
REMARK  Name = ../refined-set-2016/3tay/3tay_pocket.pdb
REMARK  120 active torsions:
REMARK  status: ('A' for Active; 'I' for Inactive)
REMARK    1  A    between atoms: _1  and  _3
REMARK    2  A    between atoms: _3  and  _4
REMARK    3  A    between atoms: _3  and  _6
REMARK    4  A    between atoms: _6  and  _7
REMARK    5  A    between atoms: _10  and  _12
REMARK    6  A    between atoms: _12  and  _13
REMARK    7  A    between atoms: _12  and  _15
REMARK    8  A    between atoms: _15  and  _16
REMARK    9  A    between atoms: _16  and  _17
REMARK   10  A    between atoms: _17  and  _18
REMARK   11  A    between atoms: _27  and  _29
REMARK   12  A    between atoms: _29  and  _30
REMARK   13  A    between atoms: _29  and  _32
REMARK   14  A    between atoms: _32  and  _33
REMARK   15  A    between atoms: _43  and  _45
REMARK   16  A    between atoms: _45  and  _46
REMARK   17  A    between atoms: _45  and  _48
REMARK   18  A    between atoms: _48  and  _49
REMARK   19  A    between atoms: _52  and  _54
REMARK   20  A    between atoms: _54  and  _55
REMARK   21  A    between atoms: _54  and  _57
REMARK   22  A    between atoms: _57  and  _58
REMARK   23  A    between atoms: _61  and  _63
REMARK   24  A    between atoms: _63  and  _64
REMARK   25  A    between atoms: _63  and  _66
REMARK   26  A    between atoms: _69  and  _71
REMARK   27  A    between atoms: _71  and  _72
REMARK   28  A    between atoms: _71  and  _74
REMARK   29  A    between atoms: _74  and  _75
REMARK   30  A    between atoms: _77  and  _79
REMARK   31  A    between atoms: _79  and  _80
REMARK   32  A    between atoms: _79  and  _82
REMARK   33  A    between atoms: _82  and  _83
REMARK   34  A    between atoms: _83  and  _84
REMARK   35  A    between atoms: _84  and  _85
REMARK   36  A    between atoms: _85  and  _86
REMARK   37  A    between atoms: _90  and  _92
REMARK   38  A    between atoms: _92  and  _93
REMARK   39  A    between atoms: _92  and  _95
REMARK   40  A    between atoms: _95  and  _96
REMARK   41  A    between atoms: _99  and  _101
REMARK   42  A    between atoms: _101  and  _102
REMARK   43  A    between atoms: _101  and  _104
REMARK   44  A    between atoms: _104  and  _105
REMARK   45  A    between atoms: _108  and  _110
REMARK   46  A    between atoms: _110  and  _111
REMARK   47  A    between atoms: _110  and  _113
REMARK   48  A    between atoms: _113  and  _114
REMARK   49  A    between atoms: _114  and  _115
REMARK   50  A    between atoms: _120  and  _122
REMARK   51  A    between atoms: _122  and  _123
REMARK   52  A    between atoms: _122  and  _125
REMARK   53  A    between atoms: _125  and  _126
REMARK   54  A    between atoms: _131  and  _133
REMARK   55  A    between atoms: _133  and  _134
REMARK   56  A    between atoms: _134  and  _135
REMARK   57  A    between atoms: _134  and  _136
REMARK   58  A    between atoms: _136  and  _138
REMARK   59  A    between atoms: _138  and  _139
REMARK   60  A    between atoms: _138  and  _141
REMARK   61  A    between atoms: _141  and  _142
REMARK   62  A    between atoms: _144  and  _146
REMARK   63  A    between atoms: _146  and  _147
REMARK   64  A    between atoms: _146  and  _149
REMARK   65  A    between atoms: _149  and  _150
REMARK   66  A    between atoms: _155  and  _156
REMARK   67  A    between atoms: _158  and  _160
REMARK   68  A    between atoms: _160  and  _161
REMARK   69  A    between atoms: _163  and  _165
REMARK   70  A    between atoms: _165  and  _166
REMARK   71  A    between atoms: _165  and  _168
REMARK   72  A    between atoms: _168  and  _169
REMARK   73  A    between atoms: _169  and  _170
REMARK   74  A    between atoms: _170  and  _171
REMARK   75  A    between atoms: _180  and  _182
REMARK   76  A    between atoms: _182  and  _183
REMARK   77  A    between atoms: _182  and  _185
REMARK   78  A    between atoms: _185  and  _186
REMARK   79  A    between atoms: _189  and  _191
REMARK   80  A    between atoms: _191  and  _192
REMARK   81  A    between atoms: _191  and  _194
REMARK   82  A    between atoms: _194  and  _195
REMARK   83  A    between atoms: _200  and  _201
REMARK   84  A    between atoms: _203  and  _205
REMARK   85  A    between atoms: _205  and  _206
REMARK   86  A    between atoms: _205  and  _208
REMARK   87  A    between atoms: _208  and  _209
REMARK   88  A    between atoms: _212  and  _214
REMARK   89  A    between atoms: _214  and  _215
REMARK   90  A    between atoms: _214  and  _217
REMARK   91  A    between atoms: _217  and  _218
REMARK   92  A    between atoms: _223  and  _224
REMARK   93  A    between atoms: _226  and  _228
REMARK   94  A    between atoms: _228  and  _229
REMARK   95  A    between atoms: _228  and  _231
REMARK   96  A    between atoms: _231  and  _232
REMARK   97  A    between atoms: _237  and  _239
REMARK   98  A    between atoms: _239  and  _240
REMARK   99  A    between atoms: _239  and  _242
REMARK  100  A    between atoms: _242  and  _243
REMARK  101  A    between atoms: _246  and  _248
REMARK  102  A    between atoms: _248  and  _249
REMARK  103  A    between atoms: _251  and  _253
REMARK  104  A    between atoms: _253  and  _254
REMARK  105  A    between atoms: _253  and  _256
REMARK  106  A    between atoms: _256  and  _257
REMARK  107  A    between atoms: _262  and  _263
REMARK  108  A    between atoms: _265  and  _267
REMARK  109  A    between atoms: _267  and  _268
REMARK  110  A    between atoms: _267  and  _270
REMARK  111  A    between atoms: _270  and  _271
REMARK  112  A    between atoms: _276  and  _277
REMARK  113  A    between atoms: _279  and  _281
REMARK  114  A    between atoms: _281  and  _282
REMARK  115  A    between atoms: _281  and  _284
REMARK  116  A    between atoms: _284  and  _285
REMARK  117  A    between atoms: _287  and  _289
REMARK  118  A    between atoms: _289  and  _290
REMARK  119  A    between atoms: _289  and  _292
REMARK  120  A    between atoms: _292  and  _293
REMARK                            x       y       z     vdW  Elec       q    Type
REMARK                         _______ _______ _______ _____ _____    ______ ____
ROOT
ATOM      1  O   HOH     1     -24.182  47.338  21.565  0.00  0.00    +0.000 OA
ENDROOT
TORSDOF 0
REMARK  Name = ../refined-set-2016/3tay/3tay_pocket.pdb
REMARK  120 active torsions:
REMARK  status: ('A' for Active; 'I' for Inactive)
REMARK    1  A    between atoms: _1  and  _3
REMARK    2  A    between atoms: _3  and  _4
REMARK    3  A    between atoms: _3  and  _6
REMARK    4  A    between atoms: _6  and  _7
REMARK    5  A    between atoms: _10  and  _12
REMARK    6  A    between atoms: _12  and  _13
REMARK    7  A    between atoms: _12  and  _15
REMARK    8  A    between atoms: _15  and  _16
REMARK    9  A    between atoms: _16  and  _17
REMARK   10  A    between atoms: _17  and  _18
REMARK   11  A    between atoms: _27  and  _29
REMARK   12  A    between atoms: _29  and  _30
REMARK   13  A    between atoms: _29  and  _32
REMARK   14  A    between atoms: _32  and  _33
REMARK   15  A    between atoms: _43  and  _45
REMARK   16  A    between atoms: _45  and  _46
REMARK   17  A    between atoms: _45  and  _48
REMARK   18  A    between atoms: _48  and  _49
REMARK   19  A    between atoms: _52  and  _54
REMARK   20  A    between atoms: _54  and  _55
REMARK   21  A    between atoms: _54  and  _57
REMARK   22  A    between atoms: _57  and  _58
REMARK   23  A    between atoms: _61  and  _63
REMARK   24  A    between atoms: _63  and  _64
REMARK   25  A    between atoms: _63  and  _66
REMARK   26  A    between atoms: _69  and  _71
REMARK   27  A    between atoms: _71  and  _72
REMARK   28  A    between atoms: _71  and  _74
REMARK   29  A    between atoms: _74  and  _75
REMARK   30  A    between atoms: _77  and  _79
REMARK   31  A    between atoms: _79  and  _80
REMARK   32  A    between atoms: _79  and  _82
REMARK   33  A    between atoms: _82  and  _83
REMARK   34  A    between atoms: _83  and  _84
REMARK   35  A    between atoms: _84  and  _85
REMARK   36  A    between atoms: _85  and  _86
REMARK   37  A    between atoms: _90  and  _92
REMARK   38  A    between atoms: _92  and  _93
REMARK   39  A    between atoms: _92  and  _95
REMARK   40  A    between atoms: _95  and  _96
REMARK   41  A    between atoms: _99  and  _101
REMARK   42  A    between atoms: _101  and  _102
REMARK   43  A    between atoms: _101  and  _104
REMARK   44  A    between atoms: _104  and  _105
REMARK   45  A    between atoms: _108  and  _110
REMARK   46  A    between atoms: _110  and  _111
REMARK   47  A    between atoms: _110  and  _113
REMARK   48  A    between atoms: _113  and  _114
REMARK   49  A    between atoms: _114  and  _115
REMARK   50  A    between atoms: _120  and  _122
REMARK   51  A    between atoms: _122  and  _123
REMARK   52  A    between atoms: _122  and  _125
REMARK   53  A    between atoms: _125  and  _126
REMARK   54  A    between atoms: _131  and  _133
REMARK   55  A    between atoms: _133  and  _134
REMARK   56  A    between atoms: _134  and  _135
REMARK   57  A    between atoms: _134  and  _136
REMARK   58  A    between atoms: _136  and  _138
REMARK   59  A    between atoms: _138  and  _139
REMARK   60  A    between atoms: _138  and  _141
REMARK   61  A    between atoms: _141  and  _142
REMARK   62  A    between atoms: _144  and  _146
REMARK   63  A    between atoms: _146  and  _147
REMARK   64  A    between atoms: _146  and  _149
REMARK   65  A    between atoms: _149  and  _150
REMARK   66  A    between atoms: _155  and  _156
REMARK   67  A    between atoms: _158  and  _160
REMARK   68  A    between atoms: _160  and  _161
REMARK   69  A    between atoms: _163  and  _165
REMARK   70  A    between atoms: _165  and  _166
REMARK   71  A    between atoms: _165  and  _168
REMARK   72  A    between atoms: _168  and  _169
REMARK   73  A    between atoms: _169  and  _170
REMARK   74  A    between atoms: _170  and  _171
REMARK   75  A    between atoms: _180  and  _182
REMARK   76  A    between atoms: _182  and  _183
REMARK   77  A    between atoms: _182  and  _185
REMARK   78  A    between atoms: _185  and  _186
REMARK   79  A    between atoms: _189  and  _191
REMARK   80  A    between atoms: _191  and  _192
REMARK   81  A    between atoms: _191  and  _194
REMARK   82  A    between atoms: _194  and  _195
REMARK   83  A    between atoms: _200  and  _201
REMARK   84  A    between atoms: _203  and  _205
REMARK   85  A    between atoms: _205  and  _206
REMARK   86  A    between atoms: _205  and  _208
REMARK   87  A    between atoms: _208  and  _209
REMARK   88  A    between atoms: _212  and  _214
REMARK   89  A    between atoms: _214  and  _215
REMARK   90  A    between atoms: _214  and  _217
REMARK   91  A    between atoms: _217  and  _218
REMARK   92  A    between atoms: _223  and  _224
REMARK   93  A    between atoms: _226  and  _228
REMARK   94  A    between atoms: _228  and  _229
REMARK   95  A    between atoms: _228  and  _231
REMARK   96  A    between atoms: _231  and  _232
REMARK   97  A    between atoms: _237  and  _239
REMARK   98  A    between atoms: _239  and  _240
REMARK   99  A    between atoms: _239  and  _242
REMARK  100  A    between atoms: _242  and  _243
REMARK  101  A    between atoms: _246  and  _248
REMARK  102  A    between atoms: _248  and  _249
REMARK  103  A    between atoms: _251  and  _253
REMARK  104  A    between atoms: _253  and  _254
REMARK  105  A    between atoms: _253  and  _256
REMARK  106  A    between atoms: _256  and  _257
REMARK  107  A    between atoms: _262  and  _263
REMARK  108  A    between atoms: _265  and  _267
REMARK  109  A    between atoms: _267  and  _268
REMARK  110  A    between atoms: _267  and  _270
REMARK  111  A    between atoms: _270  and  _271
REMARK  112  A    between atoms: _276  and  _277
REMARK  113  A    between atoms: _279  and  _281
REMARK  114  A    between atoms: _281  and  _282
REMARK  115  A    between atoms: _281  and  _284
REMARK  116  A    between atoms: _284  and  _285
REMARK  117  A    between atoms: _287  and  _289
REMARK  118  A    between atoms: _289  and  _290
REMARK  119  A    between atoms: _289  and  _292
REMARK  120  A    between atoms: _292  and  _293
REMARK                            x       y       z     vdW  Elec       q    Type
REMARK                         _______ _______ _______ _____ _____    ______ ____
ROOT
ATOM      1  O   HOH     1     -21.243  38.873  17.132  0.00  0.00    +0.000 OA
ENDROOT
TORSDOF 0
REMARK  Name = ../refined-set-2016/3tay/3tay_pocket.pdb
REMARK  120 active torsions:
REMARK  status: ('A' for Active; 'I' for Inactive)
REMARK    1  A    between atoms: _1  and  _3
REMARK    2  A    between atoms: _3  and  _4
REMARK    3  A    between atoms: _3  and  _6
REMARK    4  A    between atoms: _6  and  _7
REMARK    5  A    between atoms: _10  and  _12
REMARK    6  A    between atoms: _12  and  _13
REMARK    7  A    between atoms: _12  and  _15
REMARK    8  A    between atoms: _15  and  _16
REMARK    9  A    between atoms: _16  and  _17
REMARK   10  A    between atoms: _17  and  _18
REMARK   11  A    between atoms: _27  and  _29
REMARK   12  A    between atoms: _29  and  _30
REMARK   13  A    between atoms: _29  and  _32
REMARK   14  A    between atoms: _32  and  _33
REMARK   15  A    between atoms: _43  and  _45
REMARK   16  A    between atoms: _45  and  _46
REMARK   17  A    between atoms: _45  and  _48
REMARK   18  A    between atoms: _48  and  _49
REMARK   19  A    between atoms: _52  and  _54
REMARK   20  A    between atoms: _54  and  _55
REMARK   21  A    between atoms: _54  and  _57
REMARK   22  A    between atoms: _57  and  _58
REMARK   23  A    between atoms: _61  and  _63
REMARK   24  A    between atoms: _63  and  _64
REMARK   25  A    between atoms: _63  and  _66
REMARK   26  A    between atoms: _69  and  _71
REMARK   27  A    between atoms: _71  and  _72
REMARK   28  A    between atoms: _71  and  _74
REMARK   29  A    between atoms: _74  and  _75
REMARK   30  A    between atoms: _77  and  _79
REMARK   31  A    between atoms: _79  and  _80
REMARK   32  A    between atoms: _79  and  _82
REMARK   33  A    between atoms: _82  and  _83
REMARK   34  A    between atoms: _83  and  _84
REMARK   35  A    between atoms: _84  and  _85
REMARK   36  A    between atoms: _85  and  _86
REMARK   37  A    between atoms: _90  and  _92
REMARK   38  A    between atoms: _92  and  _93
REMARK   39  A    between atoms: _92  and  _95
REMARK   40  A    between atoms: _95  and  _96
REMARK   41  A    between atoms: _99  and  _101
REMARK   42  A    between atoms: _101  and  _102
REMARK   43  A    between atoms: _101  and  _104
REMARK   44  A    between atoms: _104  and  _105
REMARK   45  A    between atoms: _108  and  _110
REMARK   46  A    between atoms: _110  and  _111
REMARK   47  A    between atoms: _110  and  _113
REMARK   48  A    between atoms: _113  and  _114
REMARK   49  A    between atoms: _114  and  _115
REMARK   50  A    between atoms: _120  and  _122
REMARK   51  A    between atoms: _122  and  _123
REMARK   52  A    between atoms: _122  and  _125
REMARK   53  A    between atoms: _125  and  _126
REMARK   54  A    between atoms: _131  and  _133
REMARK   55  A    between atoms: _133  and  _134
REMARK   56  A    between atoms: _134  and  _135
REMARK   57  A    between atoms: _134  and  _136
REMARK   58  A    between atoms: _136  and  _138
REMARK   59  A    between atoms: _138  and  _139
REMARK   60  A    between atoms: _138  and  _141
REMARK   61  A    between atoms: _141  and  _142
REMARK   62  A    between atoms: _144  and  _146
REMARK   63  A    between atoms: _146  and  _147
REMARK   64  A    between atoms: _146  and  _149
REMARK   65  A    between atoms: _149  and  _150
REMARK   66  A    between atoms: _155  and  _156
REMARK   67  A    between atoms: _158  and  _160
REMARK   68  A    between atoms: _160  and  _161
REMARK   69  A    between atoms: _163  and  _165
REMARK   70  A    between atoms: _165  and  _166
REMARK   71  A    between atoms: _165  and  _168
REMARK   72  A    between atoms: _168  and  _169
REMARK   73  A    between atoms: _169  and  _170
REMARK   74  A    between atoms: _170  and  _171
REMARK   75  A    between atoms: _180  and  _182
REMARK   76  A    between atoms: _182  and  _183
REMARK   77  A    between atoms: _182  and  _185
REMARK   78  A    between atoms: _185  and  _186
REMARK   79  A    between atoms: _189  and  _191
REMARK   80  A    between atoms: _191  and  _192
REMARK   81  A    between atoms: _191  and  _194
REMARK   82  A    between atoms: _194  and  _195
REMARK   83  A    between atoms: _200  and  _201
REMARK   84  A    between atoms: _203  and  _205
REMARK   85  A    between atoms: _205  and  _206
REMARK   86  A    between atoms: _205  and  _208
REMARK   87  A    between atoms: _208  and  _209
REMARK   88  A    between atoms: _212  and  _214
REMARK   89  A    between atoms: _214  and  _215
REMARK   90  A    between atoms: _214  and  _217
REMARK   91  A    between atoms: _217  and  _218
REMARK   92  A    between atoms: _223  and  _224
REMARK   93  A    between atoms: _226  and  _228
REMARK   94  A    between atoms: _228  and  _229
REMARK   95  A    between atoms: _228  and  _231
REMARK   96  A    between atoms: _231  and  _232
REMARK   97  A    between atoms: _237  and  _239
REMARK   98  A    between atoms: _239  and  _240
REMARK   99  A    between atoms: _239  and  _242
REMARK  100  A    between atoms: _242  and  _243
REMARK  101  A    between atoms: _246  and  _248
REMARK  102  A    between atoms: _248  and  _249
REMARK  103  A    between atoms: _251  and  _253
REMARK  104  A    between atoms: _253  and  _254
REMARK  105  A    between atoms: _253  and  _256
REMARK  106  A    between atoms: _256  and  _257
REMARK  107  A    between atoms: _262  and  _263
REMARK  108  A    between atoms: _265  and  _267
REMARK  109  A    between atoms: _267  and  _268
REMARK  110  A    between atoms: _267  and  _270
REMARK  111  A    between atoms: _270  and  _271
REMARK  112  A    between atoms: _276  and  _277
REMARK  113  A    between atoms: _279  and  _281
REMARK  114  A    between atoms: _281  and  _282
REMARK  115  A    between atoms: _281  and  _284
REMARK  116  A    between atoms: _284  and  _285
REMARK  117  A    between atoms: _287  and  _289
REMARK  118  A    between atoms: _289  and  _290
REMARK  119  A    between atoms: _289  and  _292
REMARK  120  A    between atoms: _292  and  _293
REMARK                            x       y       z     vdW  Elec       q    Type
REMARK                         _______ _______ _______ _____ _____    ______ ____
ROOT
ATOM      1  O   HOH     1     -23.593  39.812  19.561  0.00  0.00    +0.000 OA
ENDROOT
TORSDOF 0
REMARK  Name = ../refined-set-2016/3tay/3tay_pocket.pdb
REMARK  120 active torsions:
REMARK  status: ('A' for Active; 'I' for Inactive)
REMARK    1  A    between atoms: _1  and  _3
REMARK    2  A    between atoms: _3  and  _4
REMARK    3  A    between atoms: _3  and  _6
REMARK    4  A    between atoms: _6  and  _7
REMARK    5  A    between atoms: _10  and  _12
REMARK    6  A    between atoms: _12  and  _13
REMARK    7  A    between atoms: _12  and  _15
REMARK    8  A    between atoms: _15  and  _16
REMARK    9  A    between atoms: _16  and  _17
REMARK   10  A    between atoms: _17  and  _18
REMARK   11  A    between atoms: _27  and  _29
REMARK   12  A    between atoms: _29  and  _30
REMARK   13  A    between atoms: _29  and  _32
REMARK   14  A    between atoms: _32  and  _33
REMARK   15  A    between atoms: _43  and  _45
REMARK   16  A    between atoms: _45  and  _46
REMARK   17  A    between atoms: _45  and  _48
REMARK   18  A    between atoms: _48  and  _49
REMARK   19  A    between atoms: _52  and  _54
REMARK   20  A    between atoms: _54  and  _55
REMARK   21  A    between atoms: _54  and  _57
REMARK   22  A    between atoms: _57  and  _58
REMARK   23  A    between atoms: _61  and  _63
REMARK   24  A    between atoms: _63  and  _64
REMARK   25  A    between atoms: _63  and  _66
REMARK   26  A    between atoms: _69  and  _71
REMARK   27  A    between atoms: _71  and  _72
REMARK   28  A    between atoms: _71  and  _74
REMARK   29  A    between atoms: _74  and  _75
REMARK   30  A    between atoms: _77  and  _79
REMARK   31  A    between atoms: _79  and  _80
REMARK   32  A    between atoms: _79  and  _82
REMARK   33  A    between atoms: _82  and  _83
REMARK   34  A    between atoms: _83  and  _84
REMARK   35  A    between atoms: _84  and  _85
REMARK   36  A    between atoms: _85  and  _86
REMARK   37  A    between atoms: _90  and  _92
REMARK   38  A    between atoms: _92  and  _93
REMARK   39  A    between atoms: _92  and  _95
REMARK   40  A    between atoms: _95  and  _96
REMARK   41  A    between atoms: _99  and  _101
REMARK   42  A    between atoms: _101  and  _102
REMARK   43  A    between atoms: _101  and  _104
REMARK   44  A    between atoms: _104  and  _105
REMARK   45  A    between atoms: _108  and  _110
REMARK   46  A    between atoms: _110  and  _111
REMARK   47  A    between atoms: _110  and  _113
REMARK   48  A    between atoms: _113  and  _114
REMARK   49  A    between atoms: _114  and  _115
REMARK   50  A    between atoms: _120  and  _122
REMARK   51  A    between atoms: _122  and  _123
REMARK   52  A    between atoms: _122  and  _125
REMARK   53  A    between atoms: _125  and  _126
REMARK   54  A    between atoms: _131  and  _133
REMARK   55  A    between atoms: _133  and  _134
REMARK   56  A    between atoms: _134  and  _135
REMARK   57  A    between atoms: _134  and  _136
REMARK   58  A    between atoms: _136  and  _138
REMARK   59  A    between atoms: _138  and  _139
REMARK   60  A    between atoms: _138  and  _141
REMARK   61  A    between atoms: _141  and  _142
REMARK   62  A    between atoms: _144  and  _146
REMARK   63  A    between atoms: _146  and  _147
REMARK   64  A    between atoms: _146  and  _149
REMARK   65  A    between atoms: _149  and  _150
REMARK   66  A    between atoms: _155  and  _156
REMARK   67  A    between atoms: _158  and  _160
REMARK   68  A    between atoms: _160  and  _161
REMARK   69  A    between atoms: _163  and  _165
REMARK   70  A    between atoms: _165  and  _166
REMARK   71  A    between atoms: _165  and  _168
REMARK   72  A    between atoms: _168  and  _169
REMARK   73  A    between atoms: _169  and  _170
REMARK   74  A    between atoms: _170  and  _171
REMARK   75  A    between atoms: _180  and  _182
REMARK   76  A    between atoms: _182  and  _183
REMARK   77  A    between atoms: _182  and  _185
REMARK   78  A    between atoms: _185  and  _186
REMARK   79  A    between atoms: _189  and  _191
REMARK   80  A    between atoms: _191  and  _192
REMARK   81  A    between atoms: _191  and  _194
REMARK   82  A    between atoms: _194  and  _195
REMARK   83  A    between atoms: _200  and  _201
REMARK   84  A    between atoms: _203  and  _205
REMARK   85  A    between atoms: _205  and  _206
REMARK   86  A    between atoms: _205  and  _208
REMARK   87  A    between atoms: _208  and  _209
REMARK   88  A    between atoms: _212  and  _214
REMARK   89  A    between atoms: _214  and  _215
REMARK   90  A    between atoms: _214  and  _217
REMARK   91  A    between atoms: _217  and  _218
REMARK   92  A    between atoms: _223  and  _224
REMARK   93  A    between atoms: _226  and  _228
REMARK   94  A    between atoms: _228  and  _229
REMARK   95  A    between atoms: _228  and  _231
REMARK   96  A    between atoms: _231  and  _232
REMARK   97  A    between atoms: _237  and  _239
REMARK   98  A    between atoms: _239  and  _240
REMARK   99  A    between atoms: _239  and  _242
REMARK  100  A    between atoms: _242  and  _243
REMARK  101  A    between atoms: _246  and  _248
REMARK  102  A    between atoms: _248  and  _249
REMARK  103  A    between atoms: _251  and  _253
REMARK  104  A    between atoms: _253  and  _254
REMARK  105  A    between atoms: _253  and  _256
REMARK  106  A    between atoms: _256  and  _257
REMARK  107  A    between atoms: _262  and  _263
REMARK  108  A    between atoms: _265  and  _267
REMARK  109  A    between atoms: _267  and  _268
REMARK  110  A    between atoms: _267  and  _270
REMARK  111  A    between atoms: _270  and  _271
REMARK  112  A    between atoms: _276  and  _277
REMARK  113  A    between atoms: _279  and  _281
REMARK  114  A    between atoms: _281  and  _282
REMARK  115  A    between atoms: _281  and  _284
REMARK  116  A    between atoms: _284  and  _285
REMARK  117  A    between atoms: _287  and  _289
REMARK  118  A    between atoms: _289  and  _290
REMARK  119  A    between atoms: _289  and  _292
REMARK  120  A    between atoms: _292  and  _293
REMARK                            x       y       z     vdW  Elec       q    Type
REMARK                         _______ _______ _______ _____ _____    ______ ____
ROOT
ATOM      1  O   HOH     1     -25.764  40.990  18.254  0.00  0.00    +0.000 OA
ENDROOT
TORSDOF 0
REMARK  Name = ../refined-set-2016/3tay/3tay_pocket.pdb
REMARK  120 active torsions:
REMARK  status: ('A' for Active; 'I' for Inactive)
REMARK    1  A    between atoms: _1  and  _3
REMARK    2  A    between atoms: _3  and  _4
REMARK    3  A    between atoms: _3  and  _6
REMARK    4  A    between atoms: _6  and  _7
REMARK    5  A    between atoms: _10  and  _12
REMARK    6  A    between atoms: _12  and  _13
REMARK    7  A    between atoms: _12  and  _15
REMARK    8  A    between atoms: _15  and  _16
REMARK    9  A    between atoms: _16  and  _17
REMARK   10  A    between atoms: _17  and  _18
REMARK   11  A    between atoms: _27  and  _29
REMARK   12  A    between atoms: _29  and  _30
REMARK   13  A    between atoms: _29  and  _32
REMARK   14  A    between atoms: _32  and  _33
REMARK   15  A    between atoms: _43  and  _45
REMARK   16  A    between atoms: _45  and  _46
REMARK   17  A    between atoms: _45  and  _48
REMARK   18  A    between atoms: _48  and  _49
REMARK   19  A    between atoms: _52  and  _54
REMARK   20  A    between atoms: _54  and  _55
REMARK   21  A    between atoms: _54  and  _57
REMARK   22  A    between atoms: _57  and  _58
REMARK   23  A    between atoms: _61  and  _63
REMARK   24  A    between atoms: _63  and  _64
REMARK   25  A    between atoms: _63  and  _66
REMARK   26  A    between atoms: _69  and  _71
REMARK   27  A    between atoms: _71  and  _72
REMARK   28  A    between atoms: _71  and  _74
REMARK   29  A    between atoms: _74  and  _75
REMARK   30  A    between atoms: _77  and  _79
REMARK   31  A    between atoms: _79  and  _80
REMARK   32  A    between atoms: _79  and  _82
REMARK   33  A    between atoms: _82  and  _83
REMARK   34  A    between atoms: _83  and  _84
REMARK   35  A    between atoms: _84  and  _85
REMARK   36  A    between atoms: _85  and  _86
REMARK   37  A    between atoms: _90  and  _92
REMARK   38  A    between atoms: _92  and  _93
REMARK   39  A    between atoms: _92  and  _95
REMARK   40  A    between atoms: _95  and  _96
REMARK   41  A    between atoms: _99  and  _101
REMARK   42  A    between atoms: _101  and  _102
REMARK   43  A    between atoms: _101  and  _104
REMARK   44  A    between atoms: _104  and  _105
REMARK   45  A    between atoms: _108  and  _110
REMARK   46  A    between atoms: _110  and  _111
REMARK   47  A    between atoms: _110  and  _113
REMARK   48  A    between atoms: _113  and  _114
REMARK   49  A    between atoms: _114  and  _115
REMARK   50  A    between atoms: _120  and  _122
REMARK   51  A    between atoms: _122  and  _123
REMARK   52  A    between atoms: _122  and  _125
REMARK   53  A    between atoms: _125  and  _126
REMARK   54  A    between atoms: _131  and  _133
REMARK   55  A    between atoms: _133  and  _134
REMARK   56  A    between atoms: _134  and  _135
REMARK   57  A    between atoms: _134  and  _136
REMARK   58  A    between atoms: _136  and  _138
REMARK   59  A    between atoms: _138  and  _139
REMARK   60  A    between atoms: _138  and  _141
REMARK   61  A    between atoms: _141  and  _142
REMARK   62  A    between atoms: _144  and  _146
REMARK   63  A    between atoms: _146  and  _147
REMARK   64  A    between atoms: _146  and  _149
REMARK   65  A    between atoms: _149  and  _150
REMARK   66  A    between atoms: _155  and  _156
REMARK   67  A    between atoms: _158  and  _160
REMARK   68  A    between atoms: _160  and  _161
REMARK   69  A    between atoms: _163  and  _165
REMARK   70  A    between atoms: _165  and  _166
REMARK   71  A    between atoms: _165  and  _168
REMARK   72  A    between atoms: _168  and  _169
REMARK   73  A    between atoms: _169  and  _170
REMARK   74  A    between atoms: _170  and  _171
REMARK   75  A    between atoms: _180  and  _182
REMARK   76  A    between atoms: _182  and  _183
REMARK   77  A    between atoms: _182  and  _185
REMARK   78  A    between atoms: _185  and  _186
REMARK   79  A    between atoms: _189  and  _191
REMARK   80  A    between atoms: _191  and  _192
REMARK   81  A    between atoms: _191  and  _194
REMARK   82  A    between atoms: _194  and  _195
REMARK   83  A    between atoms: _200  and  _201
REMARK   84  A    between atoms: _203  and  _205
REMARK   85  A    between atoms: _205  and  _206
REMARK   86  A    between atoms: _205  and  _208
REMARK   87  A    between atoms: _208  and  _209
REMARK   88  A    between atoms: _212  and  _214
REMARK   89  A    between atoms: _214  and  _215
REMARK   90  A    between atoms: _214  and  _217
REMARK   91  A    between atoms: _217  and  _218
REMARK   92  A    between atoms: _223  and  _224
REMARK   93  A    between atoms: _226  and  _228
REMARK   94  A    between atoms: _228  and  _229
REMARK   95  A    between atoms: _228  and  _231
REMARK   96  A    between atoms: _231  and  _232
REMARK   97  A    between atoms: _237  and  _239
REMARK   98  A    between atoms: _239  and  _240
REMARK   99  A    between atoms: _239  and  _242
REMARK  100  A    between atoms: _242  and  _243
REMARK  101  A    between atoms: _246  and  _248
REMARK  102  A    between atoms: _248  and  _249
REMARK  103  A    between atoms: _251  and  _253
REMARK  104  A    between atoms: _253  and  _254
REMARK  105  A    between atoms: _253  and  _256
REMARK  106  A    between atoms: _256  and  _257
REMARK  107  A    between atoms: _262  and  _263
REMARK  108  A    between atoms: _265  and  _267
REMARK  109  A    between atoms: _267  and  _268
REMARK  110  A    between atoms: _267  and  _270
REMARK  111  A    between atoms: _270  and  _271
REMARK  112  A    between atoms: _276  and  _277
REMARK  113  A    between atoms: _279  and  _281
REMARK  114  A    between atoms: _281  and  _282
REMARK  115  A    between atoms: _281  and  _284
REMARK  116  A    between atoms: _284  and  _285
REMARK  117  A    between atoms: _287  and  _289
REMARK  118  A    between atoms: _289  and  _290
REMARK  119  A    between atoms: _289  and  _292
REMARK  120  A    between atoms: _292  and  _293
REMARK                            x       y       z     vdW  Elec       q    Type
REMARK                         _______ _______ _______ _____ _____    ______ ____
ROOT
ATOM      1  O   HOH     1     -26.242  38.379  13.452  0.00  0.00    +0.000 OA
ENDROOT
TORSDOF 0
REMARK  Name = ../refined-set-2016/3tay/3tay_pocket.pdb
REMARK  120 active torsions:
REMARK  status: ('A' for Active; 'I' for Inactive)
REMARK    1  A    between atoms: _1  and  _3
REMARK    2  A    between atoms: _3  and  _4
REMARK    3  A    between atoms: _3  and  _6
REMARK    4  A    between atoms: _6  and  _7
REMARK    5  A    between atoms: _10  and  _12
REMARK    6  A    between atoms: _12  and  _13
REMARK    7  A    between atoms: _12  and  _15
REMARK    8  A    between atoms: _15  and  _16
REMARK    9  A    between atoms: _16  and  _17
REMARK   10  A    between atoms: _17  and  _18
REMARK   11  A    between atoms: _27  and  _29
REMARK   12  A    between atoms: _29  and  _30
REMARK   13  A    between atoms: _29  and  _32
REMARK   14  A    between atoms: _32  and  _33
REMARK   15  A    between atoms: _43  and  _45
REMARK   16  A    between atoms: _45  and  _46
REMARK   17  A    between atoms: _45  and  _48
REMARK   18  A    between atoms: _48  and  _49
REMARK   19  A    between atoms: _52  and  _54
REMARK   20  A    between atoms: _54  and  _55
REMARK   21  A    between atoms: _54  and  _57
REMARK   22  A    between atoms: _57  and  _58
REMARK   23  A    between atoms: _61  and  _63
REMARK   24  A    between atoms: _63  and  _64
REMARK   25  A    between atoms: _63  and  _66
REMARK   26  A    between atoms: _69  and  _71
REMARK   27  A    between atoms: _71  and  _72
REMARK   28  A    between atoms: _71  and  _74
REMARK   29  A    between atoms: _74  and  _75
REMARK   30  A    between atoms: _77  and  _79
REMARK   31  A    between atoms: _79  and  _80
REMARK   32  A    between atoms: _79  and  _82
REMARK   33  A    between atoms: _82  and  _83
REMARK   34  A    between atoms: _83  and  _84
REMARK   35  A    between atoms: _84  and  _85
REMARK   36  A    between atoms: _85  and  _86
REMARK   37  A    between atoms: _90  and  _92
REMARK   38  A    between atoms: _92  and  _93
REMARK   39  A    between atoms: _92  and  _95
REMARK   40  A    between atoms: _95  and  _96
REMARK   41  A    between atoms: _99  and  _101
REMARK   42  A    between atoms: _101  and  _102
REMARK   43  A    between atoms: _101  and  _104
REMARK   44  A    between atoms: _104  and  _105
REMARK   45  A    between atoms: _108  and  _110
REMARK   46  A    between atoms: _110  and  _111
REMARK   47  A    between atoms: _110  and  _113
REMARK   48  A    between atoms: _113  and  _114
REMARK   49  A    between atoms: _114  and  _115
REMARK   50  A    between atoms: _120  and  _122
REMARK   51  A    between atoms: _122  and  _123
REMARK   52  A    between atoms: _122  and  _125
REMARK   53  A    between atoms: _125  and  _126
REMARK   54  A    between atoms: _131  and  _133
REMARK   55  A    between atoms: _133  and  _134
REMARK   56  A    between atoms: _134  and  _135
REMARK   57  A    between atoms: _134  and  _136
REMARK   58  A    between atoms: _136  and  _138
REMARK   59  A    between atoms: _138  and  _139
REMARK   60  A    between atoms: _138  and  _141
REMARK   61  A    between atoms: _141  and  _142
REMARK   62  A    between atoms: _144  and  _146
REMARK   63  A    between atoms: _146  and  _147
REMARK   64  A    between atoms: _146  and  _149
REMARK   65  A    between atoms: _149  and  _150
REMARK   66  A    between atoms: _155  and  _156
REMARK   67  A    between atoms: _158  and  _160
REMARK   68  A    between atoms: _160  and  _161
REMARK   69  A    between atoms: _163  and  _165
REMARK   70  A    between atoms: _165  and  _166
REMARK   71  A    between atoms: _165  and  _168
REMARK   72  A    between atoms: _168  and  _169
REMARK   73  A    between atoms: _169  and  _170
REMARK   74  A    between atoms: _170  and  _171
REMARK   75  A    between atoms: _180  and  _182
REMARK   76  A    between atoms: _182  and  _183
REMARK   77  A    between atoms: _182  and  _185
REMARK   78  A    between atoms: _185  and  _186
REMARK   79  A    between atoms: _189  and  _191
REMARK   80  A    between atoms: _191  and  _192
REMARK   81  A    between atoms: _191  and  _194
REMARK   82  A    between atoms: _194  and  _195
REMARK   83  A    between atoms: _200  and  _201
REMARK   84  A    between atoms: _203  and  _205
REMARK   85  A    between atoms: _205  and  _206
REMARK   86  A    between atoms: _205  and  _208
REMARK   87  A    between atoms: _208  and  _209
REMARK   88  A    between atoms: _212  and  _214
REMARK   89  A    between atoms: _214  and  _215
REMARK   90  A    between atoms: _214  and  _217
REMARK   91  A    between atoms: _217  and  _218
REMARK   92  A    between atoms: _223  and  _224
REMARK   93  A    between atoms: _226  and  _228
REMARK   94  A    between atoms: _228  and  _229
REMARK   95  A    between atoms: _228  and  _231
REMARK   96  A    between atoms: _231  and  _232
REMARK   97  A    between atoms: _237  and  _239
REMARK   98  A    between atoms: _239  and  _240
REMARK   99  A    between atoms: _239  and  _242
REMARK  100  A    between atoms: _242  and  _243
REMARK  101  A    between atoms: _246  and  _248
REMARK  102  A    between atoms: _248  and  _249
REMARK  103  A    between atoms: _251  and  _253
REMARK  104  A    between atoms: _253  and  _254
REMARK  105  A    between atoms: _253  and  _256
REMARK  106  A    between atoms: _256  and  _257
REMARK  107  A    between atoms: _262  and  _263
REMARK  108  A    between atoms: _265  and  _267
REMARK  109  A    between atoms: _267  and  _268
REMARK  110  A    between atoms: _267  and  _270
REMARK  111  A    between atoms: _270  and  _271
REMARK  112  A    between atoms: _276  and  _277
REMARK  113  A    between atoms: _279  and  _281
REMARK  114  A    between atoms: _281  and  _282
REMARK  115  A    between atoms: _281  and  _284
REMARK  116  A    between atoms: _284  and  _285
REMARK  117  A    between atoms: _287  and  _289
REMARK  118  A    between atoms: _289  and  _290
REMARK  119  A    between atoms: _289  and  _292
REMARK  120  A    between atoms: _292  and  _293
REMARK                            x       y       z     vdW  Elec       q    Type
REMARK                         _______ _______ _______ _____ _____    ______ ____
ROOT
ATOM      1  O   HOH     1     -25.647  40.168  15.008  0.00  0.00    +0.000 OA
ENDROOT
TORSDOF 0
REMARK  Name = ../refined-set-2016/3tay/3tay_pocket.pdb
REMARK  120 active torsions:
REMARK  status: ('A' for Active; 'I' for Inactive)
REMARK    1  A    between atoms: _1  and  _3
REMARK    2  A    between atoms: _3  and  _4
REMARK    3  A    between atoms: _3  and  _6
REMARK    4  A    between atoms: _6  and  _7
REMARK    5  A    between atoms: _10  and  _12
REMARK    6  A    between atoms: _12  and  _13
REMARK    7  A    between atoms: _12  and  _15
REMARK    8  A    between atoms: _15  and  _16
REMARK    9  A    between atoms: _16  and  _17
REMARK   10  A    between atoms: _17  and  _18
REMARK   11  A    between atoms: _27  and  _29
REMARK   12  A    between atoms: _29  and  _30
REMARK   13  A    between atoms: _29  and  _32
REMARK   14  A    between atoms: _32  and  _33
REMARK   15  A    between atoms: _43  and  _45
REMARK   16  A    between atoms: _45  and  _46
REMARK   17  A    between atoms: _45  and  _48
REMARK   18  A    between atoms: _48  and  _49
REMARK   19  A    between atoms: _52  and  _54
REMARK   20  A    between atoms: _54  and  _55
REMARK   21  A    between atoms: _54  and  _57
REMARK   22  A    between atoms: _57  and  _58
REMARK   23  A    between atoms: _61  and  _63
REMARK   24  A    between atoms: _63  and  _64
REMARK   25  A    between atoms: _63  and  _66
REMARK   26  A    between atoms: _69  and  _71
REMARK   27  A    between atoms: _71  and  _72
REMARK   28  A    between atoms: _71  and  _74
REMARK   29  A    between atoms: _74  and  _75
REMARK   30  A    between atoms: _77  and  _79
REMARK   31  A    between atoms: _79  and  _80
REMARK   32  A    between atoms: _79  and  _82
REMARK   33  A    between atoms: _82  and  _83
REMARK   34  A    between atoms: _83  and  _84
REMARK   35  A    between atoms: _84  and  _85
REMARK   36  A    between atoms: _85  and  _86
REMARK   37  A    between atoms: _90  and  _92
REMARK   38  A    between atoms: _92  and  _93
REMARK   39  A    between atoms: _92  and  _95
REMARK   40  A    between atoms: _95  and  _96
REMARK   41  A    between atoms: _99  and  _101
REMARK   42  A    between atoms: _101  and  _102
REMARK   43  A    between atoms: _101  and  _104
REMARK   44  A    between atoms: _104  and  _105
REMARK   45  A    between atoms: _108  and  _110
REMARK   46  A    between atoms: _110  and  _111
REMARK   47  A    between atoms: _110  and  _113
REMARK   48  A    between atoms: _113  and  _114
REMARK   49  A    between atoms: _114  and  _115
REMARK   50  A    between atoms: _120  and  _122
REMARK   51  A    between atoms: _122  and  _123
REMARK   52  A    between atoms: _122  and  _125
REMARK   53  A    between atoms: _125  and  _126
REMARK   54  A    between atoms: _131  and  _133
REMARK   55  A    between atoms: _133  and  _134
REMARK   56  A    between atoms: _134  and  _135
REMARK   57  A    between atoms: _134  and  _136
REMARK   58  A    between atoms: _136  and  _138
REMARK   59  A    between atoms: _138  and  _139
REMARK   60  A    between atoms: _138  and  _141
REMARK   61  A    between atoms: _141  and  _142
REMARK   62  A    between atoms: _144  and  _146
REMARK   63  A    between atoms: _146  and  _147
REMARK   64  A    between atoms: _146  and  _149
REMARK   65  A    between atoms: _149  and  _150
REMARK   66  A    between atoms: _155  and  _156
REMARK   67  A    between atoms: _158  and  _160
REMARK   68  A    between atoms: _160  and  _161
REMARK   69  A    between atoms: _163  and  _165
REMARK   70  A    between atoms: _165  and  _166
REMARK   71  A    between atoms: _165  and  _168
REMARK   72  A    between atoms: _168  and  _169
REMARK   73  A    between atoms: _169  and  _170
REMARK   74  A    between atoms: _170  and  _171
REMARK   75  A    between atoms: _180  and  _182
REMARK   76  A    between atoms: _182  and  _183
REMARK   77  A    between atoms: _182  and  _185
REMARK   78  A    between atoms: _185  and  _186
REMARK   79  A    between atoms: _189  and  _191
REMARK   80  A    between atoms: _191  and  _192
REMARK   81  A    between atoms: _191  and  _194
REMARK   82  A    between atoms: _194  and  _195
REMARK   83  A    between atoms: _200  and  _201
REMARK   84  A    between atoms: _203  and  _205
REMARK   85  A    between atoms: _205  and  _206
REMARK   86  A    between atoms: _205  and  _208
REMARK   87  A    between atoms: _208  and  _209
REMARK   88  A    between atoms: _212  and  _214
REMARK   89  A    between atoms: _214  and  _215
REMARK   90  A    between atoms: _214  and  _217
REMARK   91  A    between atoms: _217  and  _218
REMARK   92  A    between atoms: _223  and  _224
REMARK   93  A    between atoms: _226  and  _228
REMARK   94  A    between atoms: _228  and  _229
REMARK   95  A    between atoms: _228  and  _231
REMARK   96  A    between atoms: _231  and  _232
REMARK   97  A    between atoms: _237  and  _239
REMARK   98  A    between atoms: _239  and  _240
REMARK   99  A    between atoms: _239  and  _242
REMARK  100  A    between atoms: _242  and  _243
REMARK  101  A    between atoms: _246  and  _248
REMARK  102  A    between atoms: _248  and  _249
REMARK  103  A    between atoms: _251  and  _253
REMARK  104  A    between atoms: _253  and  _254
REMARK  105  A    between atoms: _253  and  _256
REMARK  106  A    between atoms: _256  and  _257
REMARK  107  A    between atoms: _262  and  _263
REMARK  108  A    between atoms: _265  and  _267
REMARK  109  A    between atoms: _267  and  _268
REMARK  110  A    between atoms: _267  and  _270
REMARK  111  A    between atoms: _270  and  _271
REMARK  112  A    between atoms: _276  and  _277
REMARK  113  A    between atoms: _279  and  _281
REMARK  114  A    between atoms: _281  and  _282
REMARK  115  A    between atoms: _281  and  _284
REMARK  116  A    between atoms: _284  and  _285
REMARK  117  A    between atoms: _287  and  _289
REMARK  118  A    between atoms: _289  and  _290
REMARK  119  A    between atoms: _289  and  _292
REMARK  120  A    between atoms: _292  and  _293
REMARK                            x       y       z     vdW  Elec       q    Type
REMARK                         _______ _______ _______ _____ _____    ______ ____
ROOT
ATOM      1  O   HOH     1     -25.664  48.156  29.184  0.00  0.00    +0.000 OA
ENDROOT
TORSDOF 0
REMARK  Name = ../refined-set-2016/3tay/3tay_pocket.pdb
REMARK  120 active torsions:
REMARK  status: ('A' for Active; 'I' for Inactive)
REMARK    1  A    between atoms: _1  and  _3
REMARK    2  A    between atoms: _3  and  _4
REMARK    3  A    between atoms: _3  and  _6
REMARK    4  A    between atoms: _6  and  _7
REMARK    5  A    between atoms: _10  and  _12
REMARK    6  A    between atoms: _12  and  _13
REMARK    7  A    between atoms: _12  and  _15
REMARK    8  A    between atoms: _15  and  _16
REMARK    9  A    between atoms: _16  and  _17
REMARK   10  A    between atoms: _17  and  _18
REMARK   11  A    between atoms: _27  and  _29
REMARK   12  A    between atoms: _29  and  _30
REMARK   13  A    between atoms: _29  and  _32
REMARK   14  A    between atoms: _32  and  _33
REMARK   15  A    between atoms: _43  and  _45
REMARK   16  A    between atoms: _45  and  _46
REMARK   17  A    between atoms: _45  and  _48
REMARK   18  A    between atoms: _48  and  _49
REMARK   19  A    between atoms: _52  and  _54
REMARK   20  A    between atoms: _54  and  _55
REMARK   21  A    between atoms: _54  and  _57
REMARK   22  A    between atoms: _57  and  _58
REMARK   23  A    between atoms: _61  and  _63
REMARK   24  A    between atoms: _63  and  _64
REMARK   25  A    between atoms: _63  and  _66
REMARK   26  A    between atoms: _69  and  _71
REMARK   27  A    between atoms: _71  and  _72
REMARK   28  A    between atoms: _71  and  _74
REMARK   29  A    between atoms: _74  and  _75
REMARK   30  A    between atoms: _77  and  _79
REMARK   31  A    between atoms: _79  and  _80
REMARK   32  A    between atoms: _79  and  _82
REMARK   33  A    between atoms: _82  and  _83
REMARK   34  A    between atoms: _83  and  _84
REMARK   35  A    between atoms: _84  and  _85
REMARK   36  A    between atoms: _85  and  _86
REMARK   37  A    between atoms: _90  and  _92
REMARK   38  A    between atoms: _92  and  _93
REMARK   39  A    between atoms: _92  and  _95
REMARK   40  A    between atoms: _95  and  _96
REMARK   41  A    between atoms: _99  and  _101
REMARK   42  A    between atoms: _101  and  _102
REMARK   43  A    between atoms: _101  and  _104
REMARK   44  A    between atoms: _104  and  _105
REMARK   45  A    between atoms: _108  and  _110
REMARK   46  A    between atoms: _110  and  _111
REMARK   47  A    between atoms: _110  and  _113
REMARK   48  A    between atoms: _113  and  _114
REMARK   49  A    between atoms: _114  and  _115
REMARK   50  A    between atoms: _120  and  _122
REMARK   51  A    between atoms: _122  and  _123
REMARK   52  A    between atoms: _122  and  _125
REMARK   53  A    between atoms: _125  and  _126
REMARK   54  A    between atoms: _131  and  _133
REMARK   55  A    between atoms: _133  and  _134
REMARK   56  A    between atoms: _134  and  _135
REMARK   57  A    between atoms: _134  and  _136
REMARK   58  A    between atoms: _136  and  _138
REMARK   59  A    between atoms: _138  and  _139
REMARK   60  A    between atoms: _138  and  _141
REMARK   61  A    between atoms: _141  and  _142
REMARK   62  A    between atoms: _144  and  _146
REMARK   63  A    between atoms: _146  and  _147
REMARK   64  A    between atoms: _146  and  _149
REMARK   65  A    between atoms: _149  and  _150
REMARK   66  A    between atoms: _155  and  _156
REMARK   67  A    between atoms: _158  and  _160
REMARK   68  A    between atoms: _160  and  _161
REMARK   69  A    between atoms: _163  and  _165
REMARK   70  A    between atoms: _165  and  _166
REMARK   71  A    between atoms: _165  and  _168
REMARK   72  A    between atoms: _168  and  _169
REMARK   73  A    between atoms: _169  and  _170
REMARK   74  A    between atoms: _170  and  _171
REMARK   75  A    between atoms: _180  and  _182
REMARK   76  A    between atoms: _182  and  _183
REMARK   77  A    between atoms: _182  and  _185
REMARK   78  A    between atoms: _185  and  _186
REMARK   79  A    between atoms: _189  and  _191
REMARK   80  A    between atoms: _191  and  _192
REMARK   81  A    between atoms: _191  and  _194
REMARK   82  A    between atoms: _194  and  _195
REMARK   83  A    between atoms: _200  and  _201
REMARK   84  A    between atoms: _203  and  _205
REMARK   85  A    between atoms: _205  and  _206
REMARK   86  A    between atoms: _205  and  _208
REMARK   87  A    between atoms: _208  and  _209
REMARK   88  A    between atoms: _212  and  _214
REMARK   89  A    between atoms: _214  and  _215
REMARK   90  A    between atoms: _214  and  _217
REMARK   91  A    between atoms: _217  and  _218
REMARK   92  A    between atoms: _223  and  _224
REMARK   93  A    between atoms: _226  and  _228
REMARK   94  A    between atoms: _228  and  _229
REMARK   95  A    between atoms: _228  and  _231
REMARK   96  A    between atoms: _231  and  _232
REMARK   97  A    between atoms: _237  and  _239
REMARK   98  A    between atoms: _239  and  _240
REMARK   99  A    between atoms: _239  and  _242
REMARK  100  A    between atoms: _242  and  _243
REMARK  101  A    between atoms: _246  and  _248
REMARK  102  A    between atoms: _248  and  _249
REMARK  103  A    between atoms: _251  and  _253
REMARK  104  A    between atoms: _253  and  _254
REMARK  105  A    between atoms: _253  and  _256
REMARK  106  A    between atoms: _256  and  _257
REMARK  107  A    between atoms: _262  and  _263
REMARK  108  A    between atoms: _265  and  _267
REMARK  109  A    between atoms: _267  and  _268
REMARK  110  A    between atoms: _267  and  _270
REMARK  111  A    between atoms: _270  and  _271
REMARK  112  A    between atoms: _276  and  _277
REMARK  113  A    between atoms: _279  and  _281
REMARK  114  A    between atoms: _281  and  _282
REMARK  115  A    between atoms: _281  and  _284
REMARK  116  A    between atoms: _284  and  _285
REMARK  117  A    between atoms: _287  and  _289
REMARK  118  A    between atoms: _289  and  _290
REMARK  119  A    between atoms: _289  and  _292
REMARK  120  A    between atoms: _292  and  _293
REMARK                            x       y       z     vdW  Elec       q    Type
REMARK                         _______ _______ _______ _____ _____    ______ ____
ROOT
ATOM      1  O   HOH     1     -28.989  41.846  30.593  0.00  0.00    +0.000 OA
ENDROOT
TORSDOF 0
REMARK  Name = ../refined-set-2016/3tay/3tay_pocket.pdb
REMARK  120 active torsions:
REMARK  status: ('A' for Active; 'I' for Inactive)
REMARK    1  A    between atoms: _1  and  _3
REMARK    2  A    between atoms: _3  and  _4
REMARK    3  A    between atoms: _3  and  _6
REMARK    4  A    between atoms: _6  and  _7
REMARK    5  A    between atoms: _10  and  _12
REMARK    6  A    between atoms: _12  and  _13
REMARK    7  A    between atoms: _12  and  _15
REMARK    8  A    between atoms: _15  and  _16
REMARK    9  A    between atoms: _16  and  _17
REMARK   10  A    between atoms: _17  and  _18
REMARK   11  A    between atoms: _27  and  _29
REMARK   12  A    between atoms: _29  and  _30
REMARK   13  A    between atoms: _29  and  _32
REMARK   14  A    between atoms: _32  and  _33
REMARK   15  A    between atoms: _43  and  _45
REMARK   16  A    between atoms: _45  and  _46
REMARK   17  A    between atoms: _45  and  _48
REMARK   18  A    between atoms: _48  and  _49
REMARK   19  A    between atoms: _52  and  _54
REMARK   20  A    between atoms: _54  and  _55
REMARK   21  A    between atoms: _54  and  _57
REMARK   22  A    between atoms: _57  and  _58
REMARK   23  A    between atoms: _61  and  _63
REMARK   24  A    between atoms: _63  and  _64
REMARK   25  A    between atoms: _63  and  _66
REMARK   26  A    between atoms: _69  and  _71
REMARK   27  A    between atoms: _71  and  _72
REMARK   28  A    between atoms: _71  and  _74
REMARK   29  A    between atoms: _74  and  _75
REMARK   30  A    between atoms: _77  and  _79
REMARK   31  A    between atoms: _79  and  _80
REMARK   32  A    between atoms: _79  and  _82
REMARK   33  A    between atoms: _82  and  _83
REMARK   34  A    between atoms: _83  and  _84
REMARK   35  A    between atoms: _84  and  _85
REMARK   36  A    between atoms: _85  and  _86
REMARK   37  A    between atoms: _90  and  _92
REMARK   38  A    between atoms: _92  and  _93
REMARK   39  A    between atoms: _92  and  _95
REMARK   40  A    between atoms: _95  and  _96
REMARK   41  A    between atoms: _99  and  _101
REMARK   42  A    between atoms: _101  and  _102
REMARK   43  A    between atoms: _101  and  _104
REMARK   44  A    between atoms: _104  and  _105
REMARK   45  A    between atoms: _108  and  _110
REMARK   46  A    between atoms: _110  and  _111
REMARK   47  A    between atoms: _110  and  _113
REMARK   48  A    between atoms: _113  and  _114
REMARK   49  A    between atoms: _114  and  _115
REMARK   50  A    between atoms: _120  and  _122
REMARK   51  A    between atoms: _122  and  _123
REMARK   52  A    between atoms: _122  and  _125
REMARK   53  A    between atoms: _125  and  _126
REMARK   54  A    between atoms: _131  and  _133
REMARK   55  A    between atoms: _133  and  _134
REMARK   56  A    between atoms: _134  and  _135
REMARK   57  A    between atoms: _134  and  _136
REMARK   58  A    between atoms: _136  and  _138
REMARK   59  A    between atoms: _138  and  _139
REMARK   60  A    between atoms: _138  and  _141
REMARK   61  A    between atoms: _141  and  _142
REMARK   62  A    between atoms: _144  and  _146
REMARK   63  A    between atoms: _146  and  _147
REMARK   64  A    between atoms: _146  and  _149
REMARK   65  A    between atoms: _149  and  _150
REMARK   66  A    between atoms: _155  and  _156
REMARK   67  A    between atoms: _158  and  _160
REMARK   68  A    between atoms: _160  and  _161
REMARK   69  A    between atoms: _163  and  _165
REMARK   70  A    between atoms: _165  and  _166
REMARK   71  A    between atoms: _165  and  _168
REMARK   72  A    between atoms: _168  and  _169
REMARK   73  A    between atoms: _169  and  _170
REMARK   74  A    between atoms: _170  and  _171
REMARK   75  A    between atoms: _180  and  _182
REMARK   76  A    between atoms: _182  and  _183
REMARK   77  A    between atoms: _182  and  _185
REMARK   78  A    between atoms: _185  and  _186
REMARK   79  A    between atoms: _189  and  _191
REMARK   80  A    between atoms: _191  and  _192
REMARK   81  A    between atoms: _191  and  _194
REMARK   82  A    between atoms: _194  and  _195
REMARK   83  A    between atoms: _200  and  _201
REMARK   84  A    between atoms: _203  and  _205
REMARK   85  A    between atoms: _205  and  _206
REMARK   86  A    between atoms: _205  and  _208
REMARK   87  A    between atoms: _208  and  _209
REMARK   88  A    between atoms: _212  and  _214
REMARK   89  A    between atoms: _214  and  _215
REMARK   90  A    between atoms: _214  and  _217
REMARK   91  A    between atoms: _217  and  _218
REMARK   92  A    between atoms: _223  and  _224
REMARK   93  A    between atoms: _226  and  _228
REMARK   94  A    between atoms: _228  and  _229
REMARK   95  A    between atoms: _228  and  _231
REMARK   96  A    between atoms: _231  and  _232
REMARK   97  A    between atoms: _237  and  _239
REMARK   98  A    between atoms: _239  and  _240
REMARK   99  A    between atoms: _239  and  _242
REMARK  100  A    between atoms: _242  and  _243
REMARK  101  A    between atoms: _246  and  _248
REMARK  102  A    between atoms: _248  and  _249
REMARK  103  A    between atoms: _251  and  _253
REMARK  104  A    between atoms: _253  and  _254
REMARK  105  A    between atoms: _253  and  _256
REMARK  106  A    between atoms: _256  and  _257
REMARK  107  A    between atoms: _262  and  _263
REMARK  108  A    between atoms: _265  and  _267
REMARK  109  A    between atoms: _267  and  _268
REMARK  110  A    between atoms: _267  and  _270
REMARK  111  A    between atoms: _270  and  _271
REMARK  112  A    between atoms: _276  and  _277
REMARK  113  A    between atoms: _279  and  _281
REMARK  114  A    between atoms: _281  and  _282
REMARK  115  A    between atoms: _281  and  _284
REMARK  116  A    between atoms: _284  and  _285
REMARK  117  A    between atoms: _287  and  _289
REMARK  118  A    between atoms: _289  and  _290
REMARK  119  A    between atoms: _289  and  _292
REMARK  120  A    between atoms: _292  and  _293
REMARK                            x       y       z     vdW  Elec       q    Type
REMARK                         _______ _______ _______ _____ _____    ______ ____
ROOT
ATOM      1  O   HOH     1     -36.562  32.500  21.479  0.00  0.00    +0.000 OA
ENDROOT
TORSDOF 0
REMARK  Name = ../refined-set-2016/3tay/3tay_pocket.pdb
REMARK  120 active torsions:
REMARK  status: ('A' for Active; 'I' for Inactive)
REMARK    1  A    between atoms: _1  and  _3
REMARK    2  A    between atoms: _3  and  _4
REMARK    3  A    between atoms: _3  and  _6
REMARK    4  A    between atoms: _6  and  _7
REMARK    5  A    between atoms: _10  and  _12
REMARK    6  A    between atoms: _12  and  _13
REMARK    7  A    between atoms: _12  and  _15
REMARK    8  A    between atoms: _15  and  _16
REMARK    9  A    between atoms: _16  and  _17
REMARK   10  A    between atoms: _17  and  _18
REMARK   11  A    between atoms: _27  and  _29
REMARK   12  A    between atoms: _29  and  _30
REMARK   13  A    between atoms: _29  and  _32
REMARK   14  A    between atoms: _32  and  _33
REMARK   15  A    between atoms: _43  and  _45
REMARK   16  A    between atoms: _45  and  _46
REMARK   17  A    between atoms: _45  and  _48
REMARK   18  A    between atoms: _48  and  _49
REMARK   19  A    between atoms: _52  and  _54
REMARK   20  A    between atoms: _54  and  _55
REMARK   21  A    between atoms: _54  and  _57
REMARK   22  A    between atoms: _57  and  _58
REMARK   23  A    between atoms: _61  and  _63
REMARK   24  A    between atoms: _63  and  _64
REMARK   25  A    between atoms: _63  and  _66
REMARK   26  A    between atoms: _69  and  _71
REMARK   27  A    between atoms: _71  and  _72
REMARK   28  A    between atoms: _71  and  _74
REMARK   29  A    between atoms: _74  and  _75
REMARK   30  A    between atoms: _77  and  _79
REMARK   31  A    between atoms: _79  and  _80
REMARK   32  A    between atoms: _79  and  _82
REMARK   33  A    between atoms: _82  and  _83
REMARK   34  A    between atoms: _83  and  _84
REMARK   35  A    between atoms: _84  and  _85
REMARK   36  A    between atoms: _85  and  _86
REMARK   37  A    between atoms: _90  and  _92
REMARK   38  A    between atoms: _92  and  _93
REMARK   39  A    between atoms: _92  and  _95
REMARK   40  A    between atoms: _95  and  _96
REMARK   41  A    between atoms: _99  and  _101
REMARK   42  A    between atoms: _101  and  _102
REMARK   43  A    between atoms: _101  and  _104
REMARK   44  A    between atoms: _104  and  _105
REMARK   45  A    between atoms: _108  and  _110
REMARK   46  A    between atoms: _110  and  _111
REMARK   47  A    between atoms: _110  and  _113
REMARK   48  A    between atoms: _113  and  _114
REMARK   49  A    between atoms: _114  and  _115
REMARK   50  A    between atoms: _120  and  _122
REMARK   51  A    between atoms: _122  and  _123
REMARK   52  A    between atoms: _122  and  _125
REMARK   53  A    between atoms: _125  and  _126
REMARK   54  A    between atoms: _131  and  _133
REMARK   55  A    between atoms: _133  and  _134
REMARK   56  A    between atoms: _134  and  _135
REMARK   57  A    between atoms: _134  and  _136
REMARK   58  A    between atoms: _136  and  _138
REMARK   59  A    between atoms: _138  and  _139
REMARK   60  A    between atoms: _138  and  _141
REMARK   61  A    between atoms: _141  and  _142
REMARK   62  A    between atoms: _144  and  _146
REMARK   63  A    between atoms: _146  and  _147
REMARK   64  A    between atoms: _146  and  _149
REMARK   65  A    between atoms: _149  and  _150
REMARK   66  A    between atoms: _155  and  _156
REMARK   67  A    between atoms: _158  and  _160
REMARK   68  A    between atoms: _160  and  _161
REMARK   69  A    between atoms: _163  and  _165
REMARK   70  A    between atoms: _165  and  _166
REMARK   71  A    between atoms: _165  and  _168
REMARK   72  A    between atoms: _168  and  _169
REMARK   73  A    between atoms: _169  and  _170
REMARK   74  A    between atoms: _170  and  _171
REMARK   75  A    between atoms: _180  and  _182
REMARK   76  A    between atoms: _182  and  _183
REMARK   77  A    between atoms: _182  and  _185
REMARK   78  A    between atoms: _185  and  _186
REMARK   79  A    between atoms: _189  and  _191
REMARK   80  A    between atoms: _191  and  _192
REMARK   81  A    between atoms: _191  and  _194
REMARK   82  A    between atoms: _194  and  _195
REMARK   83  A    between atoms: _200  and  _201
REMARK   84  A    between atoms: _203  and  _205
REMARK   85  A    between atoms: _205  and  _206
REMARK   86  A    between atoms: _205  and  _208
REMARK   87  A    between atoms: _208  and  _209
REMARK   88  A    between atoms: _212  and  _214
REMARK   89  A    between atoms: _214  and  _215
REMARK   90  A    between atoms: _214  and  _217
REMARK   91  A    between atoms: _217  and  _218
REMARK   92  A    between atoms: _223  and  _224
REMARK   93  A    between atoms: _226  and  _228
REMARK   94  A    between atoms: _228  and  _229
REMARK   95  A    between atoms: _228  and  _231
REMARK   96  A    between atoms: _231  and  _232
REMARK   97  A    between atoms: _237  and  _239
REMARK   98  A    between atoms: _239  and  _240
REMARK   99  A    between atoms: _239  and  _242
REMARK  100  A    between atoms: _242  and  _243
REMARK  101  A    between atoms: _246  and  _248
REMARK  102  A    between atoms: _248  and  _249
REMARK  103  A    between atoms: _251  and  _253
REMARK  104  A    between atoms: _253  and  _254
REMARK  105  A    between atoms: _253  and  _256
REMARK  106  A    between atoms: _256  and  _257
REMARK  107  A    between atoms: _262  and  _263
REMARK  108  A    between atoms: _265  and  _267
REMARK  109  A    between atoms: _267  and  _268
REMARK  110  A    between atoms: _267  and  _270
REMARK  111  A    between atoms: _270  and  _271
REMARK  112  A    between atoms: _276  and  _277
REMARK  113  A    between atoms: _279  and  _281
REMARK  114  A    between atoms: _281  and  _282
REMARK  115  A    between atoms: _281  and  _284
REMARK  116  A    between atoms: _284  and  _285
REMARK  117  A    between atoms: _287  and  _289
REMARK  118  A    between atoms: _289  and  _290
REMARK  119  A    between atoms: _289  and  _292
REMARK  120  A    between atoms: _292  and  _293
REMARK                            x       y       z     vdW  Elec       q    Type
REMARK                         _______ _______ _______ _____ _____    ______ ____
ROOT
ATOM      1  O   HOH     1     -32.324  46.628  24.819  0.00  0.00    +0.000 OA
ENDROOT
TORSDOF 0
REMARK  Name = ../refined-set-2016/3tay/3tay_pocket.pdb
REMARK  120 active torsions:
REMARK  status: ('A' for Active; 'I' for Inactive)
REMARK    1  A    between atoms: _1  and  _3
REMARK    2  A    between atoms: _3  and  _4
REMARK    3  A    between atoms: _3  and  _6
REMARK    4  A    between atoms: _6  and  _7
REMARK    5  A    between atoms: _10  and  _12
REMARK    6  A    between atoms: _12  and  _13
REMARK    7  A    between atoms: _12  and  _15
REMARK    8  A    between atoms: _15  and  _16
REMARK    9  A    between atoms: _16  and  _17
REMARK   10  A    between atoms: _17  and  _18
REMARK   11  A    between atoms: _27  and  _29
REMARK   12  A    between atoms: _29  and  _30
REMARK   13  A    between atoms: _29  and  _32
REMARK   14  A    between atoms: _32  and  _33
REMARK   15  A    between atoms: _43  and  _45
REMARK   16  A    between atoms: _45  and  _46
REMARK   17  A    between atoms: _45  and  _48
REMARK   18  A    between atoms: _48  and  _49
REMARK   19  A    between atoms: _52  and  _54
REMARK   20  A    between atoms: _54  and  _55
REMARK   21  A    between atoms: _54  and  _57
REMARK   22  A    between atoms: _57  and  _58
REMARK   23  A    between atoms: _61  and  _63
REMARK   24  A    between atoms: _63  and  _64
REMARK   25  A    between atoms: _63  and  _66
REMARK   26  A    between atoms: _69  and  _71
REMARK   27  A    between atoms: _71  and  _72
REMARK   28  A    between atoms: _71  and  _74
REMARK   29  A    between atoms: _74  and  _75
REMARK   30  A    between atoms: _77  and  _79
REMARK   31  A    between atoms: _79  and  _80
REMARK   32  A    between atoms: _79  and  _82
REMARK   33  A    between atoms: _82  and  _83
REMARK   34  A    between atoms: _83  and  _84
REMARK   35  A    between atoms: _84  and  _85
REMARK   36  A    between atoms: _85  and  _86
REMARK   37  A    between atoms: _90  and  _92
REMARK   38  A    between atoms: _92  and  _93
REMARK   39  A    between atoms: _92  and  _95
REMARK   40  A    between atoms: _95  and  _96
REMARK   41  A    between atoms: _99  and  _101
REMARK   42  A    between atoms: _101  and  _102
REMARK   43  A    between atoms: _101  and  _104
REMARK   44  A    between atoms: _104  and  _105
REMARK   45  A    between atoms: _108  and  _110
REMARK   46  A    between atoms: _110  and  _111
REMARK   47  A    between atoms: _110  and  _113
REMARK   48  A    between atoms: _113  and  _114
REMARK   49  A    between atoms: _114  and  _115
REMARK   50  A    between atoms: _120  and  _122
REMARK   51  A    between atoms: _122  and  _123
REMARK   52  A    between atoms: _122  and  _125
REMARK   53  A    between atoms: _125  and  _126
REMARK   54  A    between atoms: _131  and  _133
REMARK   55  A    between atoms: _133  and  _134
REMARK   56  A    between atoms: _134  and  _135
REMARK   57  A    between atoms: _134  and  _136
REMARK   58  A    between atoms: _136  and  _138
REMARK   59  A    between atoms: _138  and  _139
REMARK   60  A    between atoms: _138  and  _141
REMARK   61  A    between atoms: _141  and  _142
REMARK   62  A    between atoms: _144  and  _146
REMARK   63  A    between atoms: _146  and  _147
REMARK   64  A    between atoms: _146  and  _149
REMARK   65  A    between atoms: _149  and  _150
REMARK   66  A    between atoms: _155  and  _156
REMARK   67  A    between atoms: _158  and  _160
REMARK   68  A    between atoms: _160  and  _161
REMARK   69  A    between atoms: _163  and  _165
REMARK   70  A    between atoms: _165  and  _166
REMARK   71  A    between atoms: _165  and  _168
REMARK   72  A    between atoms: _168  and  _169
REMARK   73  A    between atoms: _169  and  _170
REMARK   74  A    between atoms: _170  and  _171
REMARK   75  A    between atoms: _180  and  _182
REMARK   76  A    between atoms: _182  and  _183
REMARK   77  A    between atoms: _182  and  _185
REMARK   78  A    between atoms: _185  and  _186
REMARK   79  A    between atoms: _189  and  _191
REMARK   80  A    between atoms: _191  and  _192
REMARK   81  A    between atoms: _191  and  _194
REMARK   82  A    between atoms: _194  and  _195
REMARK   83  A    between atoms: _200  and  _201
REMARK   84  A    between atoms: _203  and  _205
REMARK   85  A    between atoms: _205  and  _206
REMARK   86  A    between atoms: _205  and  _208
REMARK   87  A    between atoms: _208  and  _209
REMARK   88  A    between atoms: _212  and  _214
REMARK   89  A    between atoms: _214  and  _215
REMARK   90  A    between atoms: _214  and  _217
REMARK   91  A    between atoms: _217  and  _218
REMARK   92  A    between atoms: _223  and  _224
REMARK   93  A    between atoms: _226  and  _228
REMARK   94  A    between atoms: _228  and  _229
REMARK   95  A    between atoms: _228  and  _231
REMARK   96  A    between atoms: _231  and  _232
REMARK   97  A    between atoms: _237  and  _239
REMARK   98  A    between atoms: _239  and  _240
REMARK   99  A    between atoms: _239  and  _242
REMARK  100  A    between atoms: _242  and  _243
REMARK  101  A    between atoms: _246  and  _248
REMARK  102  A    between atoms: _248  and  _249
REMARK  103  A    between atoms: _251  and  _253
REMARK  104  A    between atoms: _253  and  _254
REMARK  105  A    between atoms: _253  and  _256
REMARK  106  A    between atoms: _256  and  _257
REMARK  107  A    between atoms: _262  and  _263
REMARK  108  A    between atoms: _265  and  _267
REMARK  109  A    between atoms: _267  and  _268
REMARK  110  A    between atoms: _267  and  _270
REMARK  111  A    between atoms: _270  and  _271
REMARK  112  A    between atoms: _276  and  _277
REMARK  113  A    between atoms: _279  and  _281
REMARK  114  A    between atoms: _281  and  _282
REMARK  115  A    between atoms: _281  and  _284
REMARK  116  A    between atoms: _284  and  _285
REMARK  117  A    between atoms: _287  and  _289
REMARK  118  A    between atoms: _289  and  _290
REMARK  119  A    between atoms: _289  and  _292
REMARK  120  A    between atoms: _292  and  _293
REMARK                            x       y       z     vdW  Elec       q    Type
REMARK                         _______ _______ _______ _____ _____    ______ ____
ROOT
ATOM      1  O   HOH     1     -36.432  42.936  24.609  0.00  0.00    +0.000 OA
ENDROOT
TORSDOF 0
REMARK  Name = ../refined-set-2016/3tay/3tay_pocket.pdb
REMARK  120 active torsions:
REMARK  status: ('A' for Active; 'I' for Inactive)
REMARK    1  A    between atoms: _1  and  _3
REMARK    2  A    between atoms: _3  and  _4
REMARK    3  A    between atoms: _3  and  _6
REMARK    4  A    between atoms: _6  and  _7
REMARK    5  A    between atoms: _10  and  _12
REMARK    6  A    between atoms: _12  and  _13
REMARK    7  A    between atoms: _12  and  _15
REMARK    8  A    between atoms: _15  and  _16
REMARK    9  A    between atoms: _16  and  _17
REMARK   10  A    between atoms: _17  and  _18
REMARK   11  A    between atoms: _27  and  _29
REMARK   12  A    between atoms: _29  and  _30
REMARK   13  A    between atoms: _29  and  _32
REMARK   14  A    between atoms: _32  and  _33
REMARK   15  A    between atoms: _43  and  _45
REMARK   16  A    between atoms: _45  and  _46
REMARK   17  A    between atoms: _45  and  _48
REMARK   18  A    between atoms: _48  and  _49
REMARK   19  A    between atoms: _52  and  _54
REMARK   20  A    between atoms: _54  and  _55
REMARK   21  A    between atoms: _54  and  _57
REMARK   22  A    between atoms: _57  and  _58
REMARK   23  A    between atoms: _61  and  _63
REMARK   24  A    between atoms: _63  and  _64
REMARK   25  A    between atoms: _63  and  _66
REMARK   26  A    between atoms: _69  and  _71
REMARK   27  A    between atoms: _71  and  _72
REMARK   28  A    between atoms: _71  and  _74
REMARK   29  A    between atoms: _74  and  _75
REMARK   30  A    between atoms: _77  and  _79
REMARK   31  A    between atoms: _79  and  _80
REMARK   32  A    between atoms: _79  and  _82
REMARK   33  A    between atoms: _82  and  _83
REMARK   34  A    between atoms: _83  and  _84
REMARK   35  A    between atoms: _84  and  _85
REMARK   36  A    between atoms: _85  and  _86
REMARK   37  A    between atoms: _90  and  _92
REMARK   38  A    between atoms: _92  and  _93
REMARK   39  A    between atoms: _92  and  _95
REMARK   40  A    between atoms: _95  and  _96
REMARK   41  A    between atoms: _99  and  _101
REMARK   42  A    between atoms: _101  and  _102
REMARK   43  A    between atoms: _101  and  _104
REMARK   44  A    between atoms: _104  and  _105
REMARK   45  A    between atoms: _108  and  _110
REMARK   46  A    between atoms: _110  and  _111
REMARK   47  A    between atoms: _110  and  _113
REMARK   48  A    between atoms: _113  and  _114
REMARK   49  A    between atoms: _114  and  _115
REMARK   50  A    between atoms: _120  and  _122
REMARK   51  A    between atoms: _122  and  _123
REMARK   52  A    between atoms: _122  and  _125
REMARK   53  A    between atoms: _125  and  _126
REMARK   54  A    between atoms: _131  and  _133
REMARK   55  A    between atoms: _133  and  _134
REMARK   56  A    between atoms: _134  and  _135
REMARK   57  A    between atoms: _134  and  _136
REMARK   58  A    between atoms: _136  and  _138
REMARK   59  A    between atoms: _138  and  _139
REMARK   60  A    between atoms: _138  and  _141
REMARK   61  A    between atoms: _141  and  _142
REMARK   62  A    between atoms: _144  and  _146
REMARK   63  A    between atoms: _146  and  _147
REMARK   64  A    between atoms: _146  and  _149
REMARK   65  A    between atoms: _149  and  _150
REMARK   66  A    between atoms: _155  and  _156
REMARK   67  A    between atoms: _158  and  _160
REMARK   68  A    between atoms: _160  and  _161
REMARK   69  A    between atoms: _163  and  _165
REMARK   70  A    between atoms: _165  and  _166
REMARK   71  A    between atoms: _165  and  _168
REMARK   72  A    between atoms: _168  and  _169
REMARK   73  A    between atoms: _169  and  _170
REMARK   74  A    between atoms: _170  and  _171
REMARK   75  A    between atoms: _180  and  _182
REMARK   76  A    between atoms: _182  and  _183
REMARK   77  A    between atoms: _182  and  _185
REMARK   78  A    between atoms: _185  and  _186
REMARK   79  A    between atoms: _189  and  _191
REMARK   80  A    between atoms: _191  and  _192
REMARK   81  A    between atoms: _191  and  _194
REMARK   82  A    between atoms: _194  and  _195
REMARK   83  A    between atoms: _200  and  _201
REMARK   84  A    between atoms: _203  and  _205
REMARK   85  A    between atoms: _205  and  _206
REMARK   86  A    between atoms: _205  and  _208
REMARK   87  A    between atoms: _208  and  _209
REMARK   88  A    between atoms: _212  and  _214
REMARK   89  A    between atoms: _214  and  _215
REMARK   90  A    between atoms: _214  and  _217
REMARK   91  A    between atoms: _217  and  _218
REMARK   92  A    between atoms: _223  and  _224
REMARK   93  A    between atoms: _226  and  _228
REMARK   94  A    between atoms: _228  and  _229
REMARK   95  A    between atoms: _228  and  _231
REMARK   96  A    between atoms: _231  and  _232
REMARK   97  A    between atoms: _237  and  _239
REMARK   98  A    between atoms: _239  and  _240
REMARK   99  A    between atoms: _239  and  _242
REMARK  100  A    between atoms: _242  and  _243
REMARK  101  A    between atoms: _246  and  _248
REMARK  102  A    between atoms: _248  and  _249
REMARK  103  A    between atoms: _251  and  _253
REMARK  104  A    between atoms: _253  and  _254
REMARK  105  A    between atoms: _253  and  _256
REMARK  106  A    between atoms: _256  and  _257
REMARK  107  A    between atoms: _262  and  _263
REMARK  108  A    between atoms: _265  and  _267
REMARK  109  A    between atoms: _267  and  _268
REMARK  110  A    between atoms: _267  and  _270
REMARK  111  A    between atoms: _270  and  _271
REMARK  112  A    between atoms: _276  and  _277
REMARK  113  A    between atoms: _279  and  _281
REMARK  114  A    between atoms: _281  and  _282
REMARK  115  A    between atoms: _281  and  _284
REMARK  116  A    between atoms: _284  and  _285
REMARK  117  A    between atoms: _287  and  _289
REMARK  118  A    between atoms: _289  and  _290
REMARK  119  A    between atoms: _289  and  _292
REMARK  120  A    between atoms: _292  and  _293
REMARK                            x       y       z     vdW  Elec       q    Type
REMARK                         _______ _______ _______ _____ _____    ______ ____
ROOT
ATOM      1  O   HOH     1     -27.504  48.115  31.666  0.00  0.00    +0.000 OA
ENDROOT
TORSDOF 0
REMARK  Name = ../refined-set-2016/3tay/3tay_pocket.pdb
REMARK  120 active torsions:
REMARK  status: ('A' for Active; 'I' for Inactive)
REMARK    1  A    between atoms: _1  and  _3
REMARK    2  A    between atoms: _3  and  _4
REMARK    3  A    between atoms: _3  and  _6
REMARK    4  A    between atoms: _6  and  _7
REMARK    5  A    between atoms: _10  and  _12
REMARK    6  A    between atoms: _12  and  _13
REMARK    7  A    between atoms: _12  and  _15
REMARK    8  A    between atoms: _15  and  _16
REMARK    9  A    between atoms: _16  and  _17
REMARK   10  A    between atoms: _17  and  _18
REMARK   11  A    between atoms: _27  and  _29
REMARK   12  A    between atoms: _29  and  _30
REMARK   13  A    between atoms: _29  and  _32
REMARK   14  A    between atoms: _32  and  _33
REMARK   15  A    between atoms: _43  and  _45
REMARK   16  A    between atoms: _45  and  _46
REMARK   17  A    between atoms: _45  and  _48
REMARK   18  A    between atoms: _48  and  _49
REMARK   19  A    between atoms: _52  and  _54
REMARK   20  A    between atoms: _54  and  _55
REMARK   21  A    between atoms: _54  and  _57
REMARK   22  A    between atoms: _57  and  _58
REMARK   23  A    between atoms: _61  and  _63
REMARK   24  A    between atoms: _63  and  _64
REMARK   25  A    between atoms: _63  and  _66
REMARK   26  A    between atoms: _69  and  _71
REMARK   27  A    between atoms: _71  and  _72
REMARK   28  A    between atoms: _71  and  _74
REMARK   29  A    between atoms: _74  and  _75
REMARK   30  A    between atoms: _77  and  _79
REMARK   31  A    between atoms: _79  and  _80
REMARK   32  A    between atoms: _79  and  _82
REMARK   33  A    between atoms: _82  and  _83
REMARK   34  A    between atoms: _83  and  _84
REMARK   35  A    between atoms: _84  and  _85
REMARK   36  A    between atoms: _85  and  _86
REMARK   37  A    between atoms: _90  and  _92
REMARK   38  A    between atoms: _92  and  _93
REMARK   39  A    between atoms: _92  and  _95
REMARK   40  A    between atoms: _95  and  _96
REMARK   41  A    between atoms: _99  and  _101
REMARK   42  A    between atoms: _101  and  _102
REMARK   43  A    between atoms: _101  and  _104
REMARK   44  A    between atoms: _104  and  _105
REMARK   45  A    between atoms: _108  and  _110
REMARK   46  A    between atoms: _110  and  _111
REMARK   47  A    between atoms: _110  and  _113
REMARK   48  A    between atoms: _113  and  _114
REMARK   49  A    between atoms: _114  and  _115
REMARK   50  A    between atoms: _120  and  _122
REMARK   51  A    between atoms: _122  and  _123
REMARK   52  A    between atoms: _122  and  _125
REMARK   53  A    between atoms: _125  and  _126
REMARK   54  A    between atoms: _131  and  _133
REMARK   55  A    between atoms: _133  and  _134
REMARK   56  A    between atoms: _134  and  _135
REMARK   57  A    between atoms: _134  and  _136
REMARK   58  A    between atoms: _136  and  _138
REMARK   59  A    between atoms: _138  and  _139
REMARK   60  A    between atoms: _138  and  _141
REMARK   61  A    between atoms: _141  and  _142
REMARK   62  A    between atoms: _144  and  _146
REMARK   63  A    between atoms: _146  and  _147
REMARK   64  A    between atoms: _146  and  _149
REMARK   65  A    between atoms: _149  and  _150
REMARK   66  A    between atoms: _155  and  _156
REMARK   67  A    between atoms: _158  and  _160
REMARK   68  A    between atoms: _160  and  _161
REMARK   69  A    between atoms: _163  and  _165
REMARK   70  A    between atoms: _165  and  _166
REMARK   71  A    between atoms: _165  and  _168
REMARK   72  A    between atoms: _168  and  _169
REMARK   73  A    between atoms: _169  and  _170
REMARK   74  A    between atoms: _170  and  _171
REMARK   75  A    between atoms: _180  and  _182
REMARK   76  A    between atoms: _182  and  _183
REMARK   77  A    between atoms: _182  and  _185
REMARK   78  A    between atoms: _185  and  _186
REMARK   79  A    between atoms: _189  and  _191
REMARK   80  A    between atoms: _191  and  _192
REMARK   81  A    between atoms: _191  and  _194
REMARK   82  A    between atoms: _194  and  _195
REMARK   83  A    between atoms: _200  and  _201
REMARK   84  A    between atoms: _203  and  _205
REMARK   85  A    between atoms: _205  and  _206
REMARK   86  A    between atoms: _205  and  _208
REMARK   87  A    between atoms: _208  and  _209
REMARK   88  A    between atoms: _212  and  _214
REMARK   89  A    between atoms: _214  and  _215
REMARK   90  A    between atoms: _214  and  _217
REMARK   91  A    between atoms: _217  and  _218
REMARK   92  A    between atoms: _223  and  _224
REMARK   93  A    between atoms: _226  and  _228
REMARK   94  A    between atoms: _228  and  _229
REMARK   95  A    between atoms: _228  and  _231
REMARK   96  A    between atoms: _231  and  _232
REMARK   97  A    between atoms: _237  and  _239
REMARK   98  A    between atoms: _239  and  _240
REMARK   99  A    between atoms: _239  and  _242
REMARK  100  A    between atoms: _242  and  _243
REMARK  101  A    between atoms: _246  and  _248
REMARK  102  A    between atoms: _248  and  _249
REMARK  103  A    between atoms: _251  and  _253
REMARK  104  A    between atoms: _253  and  _254
REMARK  105  A    between atoms: _253  and  _256
REMARK  106  A    between atoms: _256  and  _257
REMARK  107  A    between atoms: _262  and  _263
REMARK  108  A    between atoms: _265  and  _267
REMARK  109  A    between atoms: _267  and  _268
REMARK  110  A    between atoms: _267  and  _270
REMARK  111  A    between atoms: _270  and  _271
REMARK  112  A    between atoms: _276  and  _277
REMARK  113  A    between atoms: _279  and  _281
REMARK  114  A    between atoms: _281  and  _282
REMARK  115  A    between atoms: _281  and  _284
REMARK  116  A    between atoms: _284  and  _285
REMARK  117  A    between atoms: _287  and  _289
REMARK  118  A    between atoms: _289  and  _290
REMARK  119  A    between atoms: _289  and  _292
REMARK  120  A    between atoms: _292  and  _293
REMARK                            x       y       z     vdW  Elec       q    Type
REMARK                         _______ _______ _______ _____ _____    ______ ____
ROOT
ATOM      1  O   HOH     1     -32.399  44.333  29.177  0.00  0.00    +0.000 OA
ENDROOT
TORSDOF 0
REMARK  Name = ../refined-set-2016/3tay/3tay_pocket.pdb
REMARK  120 active torsions:
REMARK  status: ('A' for Active; 'I' for Inactive)
REMARK    1  A    between atoms: _1  and  _3
REMARK    2  A    between atoms: _3  and  _4
REMARK    3  A    between atoms: _3  and  _6
REMARK    4  A    between atoms: _6  and  _7
REMARK    5  A    between atoms: _10  and  _12
REMARK    6  A    between atoms: _12  and  _13
REMARK    7  A    between atoms: _12  and  _15
REMARK    8  A    between atoms: _15  and  _16
REMARK    9  A    between atoms: _16  and  _17
REMARK   10  A    between atoms: _17  and  _18
REMARK   11  A    between atoms: _27  and  _29
REMARK   12  A    between atoms: _29  and  _30
REMARK   13  A    between atoms: _29  and  _32
REMARK   14  A    between atoms: _32  and  _33
REMARK   15  A    between atoms: _43  and  _45
REMARK   16  A    between atoms: _45  and  _46
REMARK   17  A    between atoms: _45  and  _48
REMARK   18  A    between atoms: _48  and  _49
REMARK   19  A    between atoms: _52  and  _54
REMARK   20  A    between atoms: _54  and  _55
REMARK   21  A    between atoms: _54  and  _57
REMARK   22  A    between atoms: _57  and  _58
REMARK   23  A    between atoms: _61  and  _63
REMARK   24  A    between atoms: _63  and  _64
REMARK   25  A    between atoms: _63  and  _66
REMARK   26  A    between atoms: _69  and  _71
REMARK   27  A    between atoms: _71  and  _72
REMARK   28  A    between atoms: _71  and  _74
REMARK   29  A    between atoms: _74  and  _75
REMARK   30  A    between atoms: _77  and  _79
REMARK   31  A    between atoms: _79  and  _80
REMARK   32  A    between atoms: _79  and  _82
REMARK   33  A    between atoms: _82  and  _83
REMARK   34  A    between atoms: _83  and  _84
REMARK   35  A    between atoms: _84  and  _85
REMARK   36  A    between atoms: _85  and  _86
REMARK   37  A    between atoms: _90  and  _92
REMARK   38  A    between atoms: _92  and  _93
REMARK   39  A    between atoms: _92  and  _95
REMARK   40  A    between atoms: _95  and  _96
REMARK   41  A    between atoms: _99  and  _101
REMARK   42  A    between atoms: _101  and  _102
REMARK   43  A    between atoms: _101  and  _104
REMARK   44  A    between atoms: _104  and  _105
REMARK   45  A    between atoms: _108  and  _110
REMARK   46  A    between atoms: _110  and  _111
REMARK   47  A    between atoms: _110  and  _113
REMARK   48  A    between atoms: _113  and  _114
REMARK   49  A    between atoms: _114  and  _115
REMARK   50  A    between atoms: _120  and  _122
REMARK   51  A    between atoms: _122  and  _123
REMARK   52  A    between atoms: _122  and  _125
REMARK   53  A    between atoms: _125  and  _126
REMARK   54  A    between atoms: _131  and  _133
REMARK   55  A    between atoms: _133  and  _134
REMARK   56  A    between atoms: _134  and  _135
REMARK   57  A    between atoms: _134  and  _136
REMARK   58  A    between atoms: _136  and  _138
REMARK   59  A    between atoms: _138  and  _139
REMARK   60  A    between atoms: _138  and  _141
REMARK   61  A    between atoms: _141  and  _142
REMARK   62  A    between atoms: _144  and  _146
REMARK   63  A    between atoms: _146  and  _147
REMARK   64  A    between atoms: _146  and  _149
REMARK   65  A    between atoms: _149  and  _150
REMARK   66  A    between atoms: _155  and  _156
REMARK   67  A    between atoms: _158  and  _160
REMARK   68  A    between atoms: _160  and  _161
REMARK   69  A    between atoms: _163  and  _165
REMARK   70  A    between atoms: _165  and  _166
REMARK   71  A    between atoms: _165  and  _168
REMARK   72  A    between atoms: _168  and  _169
REMARK   73  A    between atoms: _169  and  _170
REMARK   74  A    between atoms: _170  and  _171
REMARK   75  A    between atoms: _180  and  _182
REMARK   76  A    between atoms: _182  and  _183
REMARK   77  A    between atoms: _182  and  _185
REMARK   78  A    between atoms: _185  and  _186
REMARK   79  A    between atoms: _189  and  _191
REMARK   80  A    between atoms: _191  and  _192
REMARK   81  A    between atoms: _191  and  _194
REMARK   82  A    between atoms: _194  and  _195
REMARK   83  A    between atoms: _200  and  _201
REMARK   84  A    between atoms: _203  and  _205
REMARK   85  A    between atoms: _205  and  _206
REMARK   86  A    between atoms: _205  and  _208
REMARK   87  A    between atoms: _208  and  _209
REMARK   88  A    between atoms: _212  and  _214
REMARK   89  A    between atoms: _214  and  _215
REMARK   90  A    between atoms: _214  and  _217
REMARK   91  A    between atoms: _217  and  _218
REMARK   92  A    between atoms: _223  and  _224
REMARK   93  A    between atoms: _226  and  _228
REMARK   94  A    between atoms: _228  and  _229
REMARK   95  A    between atoms: _228  and  _231
REMARK   96  A    between atoms: _231  and  _232
REMARK   97  A    between atoms: _237  and  _239
REMARK   98  A    between atoms: _239  and  _240
REMARK   99  A    between atoms: _239  and  _242
REMARK  100  A    between atoms: _242  and  _243
REMARK  101  A    between atoms: _246  and  _248
REMARK  102  A    between atoms: _248  and  _249
REMARK  103  A    between atoms: _251  and  _253
REMARK  104  A    between atoms: _253  and  _254
REMARK  105  A    between atoms: _253  and  _256
REMARK  106  A    between atoms: _256  and  _257
REMARK  107  A    between atoms: _262  and  _263
REMARK  108  A    between atoms: _265  and  _267
REMARK  109  A    between atoms: _267  and  _268
REMARK  110  A    between atoms: _267  and  _270
REMARK  111  A    between atoms: _270  and  _271
REMARK  112  A    between atoms: _276  and  _277
REMARK  113  A    between atoms: _279  and  _281
REMARK  114  A    between atoms: _281  and  _282
REMARK  115  A    between atoms: _281  and  _284
REMARK  116  A    between atoms: _284  and  _285
REMARK  117  A    between atoms: _287  and  _289
REMARK  118  A    between atoms: _289  and  _290
REMARK  119  A    between atoms: _289  and  _292
REMARK  120  A    between atoms: _292  and  _293
REMARK                            x       y       z     vdW  Elec       q    Type
REMARK                         _______ _______ _______ _____ _____    ______ ____
ROOT
ATOM      1  O   HOH     1     -28.231  43.871  19.812  0.00  0.00    +0.000 OA
ENDROOT
TORSDOF 0
REMARK  Name = ../refined-set-2016/3tay/3tay_pocket.pdb
REMARK  120 active torsions:
REMARK  status: ('A' for Active; 'I' for Inactive)
REMARK    1  A    between atoms: _1  and  _3
REMARK    2  A    between atoms: _3  and  _4
REMARK    3  A    between atoms: _3  and  _6
REMARK    4  A    between atoms: _6  and  _7
REMARK    5  A    between atoms: _10  and  _12
REMARK    6  A    between atoms: _12  and  _13
REMARK    7  A    between atoms: _12  and  _15
REMARK    8  A    between atoms: _15  and  _16
REMARK    9  A    between atoms: _16  and  _17
REMARK   10  A    between atoms: _17  and  _18
REMARK   11  A    between atoms: _27  and  _29
REMARK   12  A    between atoms: _29  and  _30
REMARK   13  A    between atoms: _29  and  _32
REMARK   14  A    between atoms: _32  and  _33
REMARK   15  A    between atoms: _43  and  _45
REMARK   16  A    between atoms: _45  and  _46
REMARK   17  A    between atoms: _45  and  _48
REMARK   18  A    between atoms: _48  and  _49
REMARK   19  A    between atoms: _52  and  _54
REMARK   20  A    between atoms: _54  and  _55
REMARK   21  A    between atoms: _54  and  _57
REMARK   22  A    between atoms: _57  and  _58
REMARK   23  A    between atoms: _61  and  _63
REMARK   24  A    between atoms: _63  and  _64
REMARK   25  A    between atoms: _63  and  _66
REMARK   26  A    between atoms: _69  and  _71
REMARK   27  A    between atoms: _71  and  _72
REMARK   28  A    between atoms: _71  and  _74
REMARK   29  A    between atoms: _74  and  _75
REMARK   30  A    between atoms: _77  and  _79
REMARK   31  A    between atoms: _79  and  _80
REMARK   32  A    between atoms: _79  and  _82
REMARK   33  A    between atoms: _82  and  _83
REMARK   34  A    between atoms: _83  and  _84
REMARK   35  A    between atoms: _84  and  _85
REMARK   36  A    between atoms: _85  and  _86
REMARK   37  A    between atoms: _90  and  _92
REMARK   38  A    between atoms: _92  and  _93
REMARK   39  A    between atoms: _92  and  _95
REMARK   40  A    between atoms: _95  and  _96
REMARK   41  A    between atoms: _99  and  _101
REMARK   42  A    between atoms: _101  and  _102
REMARK   43  A    between atoms: _101  and  _104
REMARK   44  A    between atoms: _104  and  _105
REMARK   45  A    between atoms: _108  and  _110
REMARK   46  A    between atoms: _110  and  _111
REMARK   47  A    between atoms: _110  and  _113
REMARK   48  A    between atoms: _113  and  _114
REMARK   49  A    between atoms: _114  and  _115
REMARK   50  A    between atoms: _120  and  _122
REMARK   51  A    between atoms: _122  and  _123
REMARK   52  A    between atoms: _122  and  _125
REMARK   53  A    between atoms: _125  and  _126
REMARK   54  A    between atoms: _131  and  _133
REMARK   55  A    between atoms: _133  and  _134
REMARK   56  A    between atoms: _134  and  _135
REMARK   57  A    between atoms: _134  and  _136
REMARK   58  A    between atoms: _136  and  _138
REMARK   59  A    between atoms: _138  and  _139
REMARK   60  A    between atoms: _138  and  _141
REMARK   61  A    between atoms: _141  and  _142
REMARK   62  A    between atoms: _144  and  _146
REMARK   63  A    between atoms: _146  and  _147
REMARK   64  A    between atoms: _146  and  _149
REMARK   65  A    between atoms: _149  and  _150
REMARK   66  A    between atoms: _155  and  _156
REMARK   67  A    between atoms: _158  and  _160
REMARK   68  A    between atoms: _160  and  _161
REMARK   69  A    between atoms: _163  and  _165
REMARK   70  A    between atoms: _165  and  _166
REMARK   71  A    between atoms: _165  and  _168
REMARK   72  A    between atoms: _168  and  _169
REMARK   73  A    between atoms: _169  and  _170
REMARK   74  A    between atoms: _170  and  _171
REMARK   75  A    between atoms: _180  and  _182
REMARK   76  A    between atoms: _182  and  _183
REMARK   77  A    between atoms: _182  and  _185
REMARK   78  A    between atoms: _185  and  _186
REMARK   79  A    between atoms: _189  and  _191
REMARK   80  A    between atoms: _191  and  _192
REMARK   81  A    between atoms: _191  and  _194
REMARK   82  A    between atoms: _194  and  _195
REMARK   83  A    between atoms: _200  and  _201
REMARK   84  A    between atoms: _203  and  _205
REMARK   85  A    between atoms: _205  and  _206
REMARK   86  A    between atoms: _205  and  _208
REMARK   87  A    between atoms: _208  and  _209
REMARK   88  A    between atoms: _212  and  _214
REMARK   89  A    between atoms: _214  and  _215
REMARK   90  A    between atoms: _214  and  _217
REMARK   91  A    between atoms: _217  and  _218
REMARK   92  A    between atoms: _223  and  _224
REMARK   93  A    between atoms: _226  and  _228
REMARK   94  A    between atoms: _228  and  _229
REMARK   95  A    between atoms: _228  and  _231
REMARK   96  A    between atoms: _231  and  _232
REMARK   97  A    between atoms: _237  and  _239
REMARK   98  A    between atoms: _239  and  _240
REMARK   99  A    between atoms: _239  and  _242
REMARK  100  A    between atoms: _242  and  _243
REMARK  101  A    between atoms: _246  and  _248
REMARK  102  A    between atoms: _248  and  _249
REMARK  103  A    between atoms: _251  and  _253
REMARK  104  A    between atoms: _253  and  _254
REMARK  105  A    between atoms: _253  and  _256
REMARK  106  A    between atoms: _256  and  _257
REMARK  107  A    between atoms: _262  and  _263
REMARK  108  A    between atoms: _265  and  _267
REMARK  109  A    between atoms: _267  and  _268
REMARK  110  A    between atoms: _267  and  _270
REMARK  111  A    between atoms: _270  and  _271
REMARK  112  A    between atoms: _276  and  _277
REMARK  113  A    between atoms: _279  and  _281
REMARK  114  A    between atoms: _281  and  _282
REMARK  115  A    between atoms: _281  and  _284
REMARK  116  A    between atoms: _284  and  _285
REMARK  117  A    between atoms: _287  and  _289
REMARK  118  A    between atoms: _289  and  _290
REMARK  119  A    between atoms: _289  and  _292
REMARK  120  A    between atoms: _292  and  _293
REMARK                            x       y       z     vdW  Elec       q    Type
REMARK                         _______ _______ _______ _____ _____    ______ ____
ROOT
ATOM      1  O   HOH     1     -27.647  45.630  24.302  0.00  0.00    +0.000 OA
ENDROOT
TORSDOF 0
REMARK  Name = ../refined-set-2016/3tay/3tay_pocket.pdb
REMARK  120 active torsions:
REMARK  status: ('A' for Active; 'I' for Inactive)
REMARK    1  A    between atoms: _1  and  _3
REMARK    2  A    between atoms: _3  and  _4
REMARK    3  A    between atoms: _3  and  _6
REMARK    4  A    between atoms: _6  and  _7
REMARK    5  A    between atoms: _10  and  _12
REMARK    6  A    between atoms: _12  and  _13
REMARK    7  A    between atoms: _12  and  _15
REMARK    8  A    between atoms: _15  and  _16
REMARK    9  A    between atoms: _16  and  _17
REMARK   10  A    between atoms: _17  and  _18
REMARK   11  A    between atoms: _27  and  _29
REMARK   12  A    between atoms: _29  and  _30
REMARK   13  A    between atoms: _29  and  _32
REMARK   14  A    between atoms: _32  and  _33
REMARK   15  A    between atoms: _43  and  _45
REMARK   16  A    between atoms: _45  and  _46
REMARK   17  A    between atoms: _45  and  _48
REMARK   18  A    between atoms: _48  and  _49
REMARK   19  A    between atoms: _52  and  _54
REMARK   20  A    between atoms: _54  and  _55
REMARK   21  A    between atoms: _54  and  _57
REMARK   22  A    between atoms: _57  and  _58
REMARK   23  A    between atoms: _61  and  _63
REMARK   24  A    between atoms: _63  and  _64
REMARK   25  A    between atoms: _63  and  _66
REMARK   26  A    between atoms: _69  and  _71
REMARK   27  A    between atoms: _71  and  _72
REMARK   28  A    between atoms: _71  and  _74
REMARK   29  A    between atoms: _74  and  _75
REMARK   30  A    between atoms: _77  and  _79
REMARK   31  A    between atoms: _79  and  _80
REMARK   32  A    between atoms: _79  and  _82
REMARK   33  A    between atoms: _82  and  _83
REMARK   34  A    between atoms: _83  and  _84
REMARK   35  A    between atoms: _84  and  _85
REMARK   36  A    between atoms: _85  and  _86
REMARK   37  A    between atoms: _90  and  _92
REMARK   38  A    between atoms: _92  and  _93
REMARK   39  A    between atoms: _92  and  _95
REMARK   40  A    between atoms: _95  and  _96
REMARK   41  A    between atoms: _99  and  _101
REMARK   42  A    between atoms: _101  and  _102
REMARK   43  A    between atoms: _101  and  _104
REMARK   44  A    between atoms: _104  and  _105
REMARK   45  A    between atoms: _108  and  _110
REMARK   46  A    between atoms: _110  and  _111
REMARK   47  A    between atoms: _110  and  _113
REMARK   48  A    between atoms: _113  and  _114
REMARK   49  A    between atoms: _114  and  _115
REMARK   50  A    between atoms: _120  and  _122
REMARK   51  A    between atoms: _122  and  _123
REMARK   52  A    between atoms: _122  and  _125
REMARK   53  A    between atoms: _125  and  _126
REMARK   54  A    between atoms: _131  and  _133
REMARK   55  A    between atoms: _133  and  _134
REMARK   56  A    between atoms: _134  and  _135
REMARK   57  A    between atoms: _134  and  _136
REMARK   58  A    between atoms: _136  and  _138
REMARK   59  A    between atoms: _138  and  _139
REMARK   60  A    between atoms: _138  and  _141
REMARK   61  A    between atoms: _141  and  _142
REMARK   62  A    between atoms: _144  and  _146
REMARK   63  A    between atoms: _146  and  _147
REMARK   64  A    between atoms: _146  and  _149
REMARK   65  A    between atoms: _149  and  _150
REMARK   66  A    between atoms: _155  and  _156
REMARK   67  A    between atoms: _158  and  _160
REMARK   68  A    between atoms: _160  and  _161
REMARK   69  A    between atoms: _163  and  _165
REMARK   70  A    between atoms: _165  and  _166
REMARK   71  A    between atoms: _165  and  _168
REMARK   72  A    between atoms: _168  and  _169
REMARK   73  A    between atoms: _169  and  _170
REMARK   74  A    between atoms: _170  and  _171
REMARK   75  A    between atoms: _180  and  _182
REMARK   76  A    between atoms: _182  and  _183
REMARK   77  A    between atoms: _182  and  _185
REMARK   78  A    between atoms: _185  and  _186
REMARK   79  A    between atoms: _189  and  _191
REMARK   80  A    between atoms: _191  and  _192
REMARK   81  A    between atoms: _191  and  _194
REMARK   82  A    between atoms: _194  and  _195
REMARK   83  A    between atoms: _200  and  _201
REMARK   84  A    between atoms: _203  and  _205
REMARK   85  A    between atoms: _205  and  _206
REMARK   86  A    between atoms: _205  and  _208
REMARK   87  A    between atoms: _208  and  _209
REMARK   88  A    between atoms: _212  and  _214
REMARK   89  A    between atoms: _214  and  _215
REMARK   90  A    between atoms: _214  and  _217
REMARK   91  A    between atoms: _217  and  _218
REMARK   92  A    between atoms: _223  and  _224
REMARK   93  A    between atoms: _226  and  _228
REMARK   94  A    between atoms: _228  and  _229
REMARK   95  A    between atoms: _228  and  _231
REMARK   96  A    between atoms: _231  and  _232
REMARK   97  A    between atoms: _237  and  _239
REMARK   98  A    between atoms: _239  and  _240
REMARK   99  A    between atoms: _239  and  _242
REMARK  100  A    between atoms: _242  and  _243
REMARK  101  A    between atoms: _246  and  _248
REMARK  102  A    between atoms: _248  and  _249
REMARK  103  A    between atoms: _251  and  _253
REMARK  104  A    between atoms: _253  and  _254
REMARK  105  A    between atoms: _253  and  _256
REMARK  106  A    between atoms: _256  and  _257
REMARK  107  A    between atoms: _262  and  _263
REMARK  108  A    between atoms: _265  and  _267
REMARK  109  A    between atoms: _267  and  _268
REMARK  110  A    between atoms: _267  and  _270
REMARK  111  A    between atoms: _270  and  _271
REMARK  112  A    between atoms: _276  and  _277
REMARK  113  A    between atoms: _279  and  _281
REMARK  114  A    between atoms: _281  and  _282
REMARK  115  A    between atoms: _281  and  _284
REMARK  116  A    between atoms: _284  and  _285
REMARK  117  A    between atoms: _287  and  _289
REMARK  118  A    between atoms: _289  and  _290
REMARK  119  A    between atoms: _289  and  _292
REMARK  120  A    between atoms: _292  and  _293
REMARK                            x       y       z     vdW  Elec       q    Type
REMARK                         _______ _______ _______ _____ _____    ______ ____
ROOT
ATOM      1  O   HOH     1     -28.968  45.997  17.401  0.00  0.00    +0.000 OA
ENDROOT
TORSDOF 0
