REMARK  Name = ../refined-set-2016/4up5/4up5_pocket.pdb
REMARK  77 active torsions:
REMARK  status: ('A' for Active; 'I' for Inactive)
REMARK    1  A    between atoms: _1  and  _3
REMARK    2  A    between atoms: _21  and  _22
REMARK    3  A    between atoms: _26  and  _28
REMARK    4  A    between atoms: _28  and  _29
REMARK    5  A    between atoms: _28  and  _31
REMARK    6  A    between atoms: _31  and  _32
REMARK    7  A    between atoms: _32  and  _33
REMARK    8  A    between atoms: _33  and  _34
REMARK    9  A    between atoms: _43  and  _45
REMARK   10  A    between atoms: _45  and  _46
REMARK   11  A    between atoms: _45  and  _48
REMARK   12  A    between atoms: _48  and  _49
REMARK   13  A    between atoms: _52  and  _54
REMARK   14  A    between atoms: _54  and  _55
REMARK   15  A    between atoms: _54  and  _57
REMARK   16  A    between atoms: _57  and  _58
REMARK   17  A    between atoms: _58  and  ZN_243
REMARK   18  A    between atoms: _59  and  _61
REMARK   19  A    between atoms: _61  and  _62
REMARK   20  A    between atoms: _61  and  _64
REMARK   21  A    between atoms: _64  and  _65
REMARK   22  A    between atoms: _65  and  ZN_243
REMARK   23  A    between atoms: _66  and  _68
REMARK   24  A    between atoms: _68  and  _69
REMARK   25  A    between atoms: _68  and  _71
REMARK   26  A    between atoms: _71  and  _72
REMARK   27  A    between atoms: _72  and  _73
REMARK   28  A    between atoms: _73  and  _74
REMARK   29  A    between atoms: _74  and  _75
REMARK   30  A    between atoms: _79  and  _81
REMARK   31  A    between atoms: _81  and  _82
REMARK   32  A    between atoms: _81  and  _84
REMARK   33  A    between atoms: _84  and  _85
REMARK   34  A    between atoms: _91  and  _93
REMARK   35  A    between atoms: _104  and  _107
REMARK   36  A    between atoms: _107  and  _108
REMARK   37  A    between atoms: _108  and  _109
REMARK   38  A    between atoms: _109  and  _110
REMARK   39  A    between atoms: _121  and  _124
REMARK   40  A    between atoms: _124  and  _125
REMARK   41  A    between atoms: _125  and  _126
REMARK   42  A    between atoms: _131  and  _132
REMARK   43  A    between atoms: _136  and  _138
REMARK   44  A    between atoms: _138  and  _139
REMARK   45  A    between atoms: _138  and  _141
REMARK   46  A    between atoms: _141  and  _142
REMARK   47  A    between atoms: _145  and  _147
REMARK   48  A    between atoms: _147  and  _148
REMARK   49  A    between atoms: _150  and  _152
REMARK   50  A    between atoms: _152  and  _153
REMARK   51  A    between atoms: _152  and  _155
REMARK   52  A    between atoms: _155  and  _156
REMARK   53  A    between atoms: _156  and  _157
REMARK   54  A    between atoms: _159  and  _161
REMARK   55  A    between atoms: _161  and  _162
REMARK   56  A    between atoms: _161  and  _164
REMARK   57  A    between atoms: _164  and  _165
REMARK   58  A    between atoms: _175  and  _177
REMARK   59  A    between atoms: _177  and  _178
REMARK   60  A    between atoms: _181  and  _183
REMARK   61  A    between atoms: _190  and  _193
REMARK   62  A    between atoms: _193  and  _194
REMARK   63  A    between atoms: _199  and  _202
REMARK   64  A    between atoms: _202  and  _203
REMARK   65  A    between atoms: _208  and  _209
REMARK   66  A    between atoms: _213  and  _215
REMARK   67  A    between atoms: _215  and  _216
REMARK   68  A    between atoms: _215  and  _218
REMARK   69  A    between atoms: _218  and  _219
REMARK   70  A    between atoms: _222  and  _224
REMARK   71  A    between atoms: _224  and  _225
REMARK   72  A    between atoms: _224  and  _227
REMARK   73  A    between atoms: _227  and  _228
REMARK   74  A    between atoms: _231  and  _233
REMARK   75  A    between atoms: _233  and  _234
REMARK   76  A    between atoms: _233  and  _236
REMARK   77  A    between atoms: _236  and  _237
REMARK                            x       y       z     vdW  Elec       q    Type
REMARK                         _______ _______ _______ _____ _____    ______ ____
ROOT
ATOM      1  C   UNK A   1     -22.830  12.133   4.278  0.00  0.00    +0.000 C 
ATOM      2  C   UNK A   1     -23.141  10.606   4.168  0.00  0.00    +0.000 C 
ATOM      3  S   UNK A   1     -22.486   9.832   2.680  0.00  0.00    +0.000 S 
ATOM      4 ZN   UNK A   2     -23.542   7.774   3.278  0.00  0.00    +0.000 Zn
ATOM      5  N   UNK A   2     -22.668   7.481   5.130  0.00  0.00    +0.000 N 
ATOM      6  C   UNK A   2     -23.254   7.749   6.310  0.00  0.00    +0.000 A 
ATOM      7  N   UNK A   2     -22.429   7.437   7.282  0.00  0.00    +0.000 NA
ATOM      8  C   UNK A   2     -21.287   6.888   6.742  0.00  0.00    +0.000 A 
ATOM      9  C   UNK A   2     -21.421   6.933   5.390  0.00  0.00    +0.000 A 
ATOM     10  C   UNK A   2     -20.531   6.434   4.312  0.00  0.00    +0.000 C 
ATOM     11  C   UNK A   2     -19.221   7.263   4.139  0.00  0.00    +0.000 C 
ATOM     12  C   UNK A   2     -18.443   6.619   3.087  0.00  0.00    +0.000 C 
ATOM     13  N   ALA A   3     -17.362   5.899   3.431  0.00  0.00    +0.000 N 
ATOM     14  H   ALA A   3     -17.058   5.875   4.425  0.00  0.00    +0.000 HD
ATOM     15  CA  ALA A   3     -16.623   5.164   2.450  0.00  0.00    +0.000 C 
ATOM     16  C   ALA A   3     -17.566   4.236   1.624  0.00  0.00    +0.000 C 
ATOM     17  N   UNK A   4     -18.477   3.512   2.286  0.00  0.00    +0.000 N 
ATOM     18  H   UNK A   4     -18.561   3.597   3.319  0.00  0.00    +0.000 HD
ATOM     19  C   UNK A   4     -19.367   2.588   1.539  0.00  0.00    +0.000 C 
ATOM     20  C   UNK A   4     -20.351   3.283   0.617  0.00  0.00    +0.000 C 
ATOM     21  N   UNK A   5     -20.686   4.551   0.857  0.00  0.00    +0.000 N 
ATOM     22  H   UNK A   5     -20.380   5.034   1.725  0.00  0.00    +0.000 HD
ATOM     23  C   UNK A   5     -21.487   5.226  -0.130  0.00  0.00    +0.000 C 
ATOM     24  C   UNK A   5     -22.086   6.447   0.609  0.00  0.00    +0.000 C 
ATOM     25  O   UNK A   4     -20.733   2.734  -0.395  0.00  0.00    +0.000 OA
ATOM     26  O   ALA A   3     -17.549   4.227   0.381  0.00  0.00    +0.000 OA
ATOM     27  O   UNK A   2     -18.846   6.655   1.951  0.00  0.00    +0.000 OA
ATOM     28  S   UNK A   4     -25.760   8.259   3.770  0.00  0.00    +0.000 S 
ATOM     29  C   UNK A   4     -26.498   8.185   2.158  0.00  0.00    +0.000 C 
ATOM     30  C   UNK A   4     -26.774   9.461   1.376  0.00  0.00    +0.000 C 
ATOM     31  N   UNK A   4     -25.520  10.009   0.960  0.00  0.00    +0.000 N 
ATOM     32  H   UNK A   4     -24.686   9.971   1.580  0.00  0.00    +0.000 HD
ATOM     33  C   ALA A   3     -25.453  10.569  -0.244  0.00  0.00    +0.000 C 
ATOM     34  CA  ALA A   3     -24.131  10.965  -0.778  0.00  0.00    +0.000 C 
ATOM     35  N   ALA A   3     -23.347  11.800   0.083  0.00  0.00    +0.000 N 
ATOM     36  H   ALA A   3     -22.772  11.368   0.834  0.00  0.00    +0.000 HD
ATOM     37  C   UNK A   2     -23.347  13.118  -0.067  0.00  0.00    +0.000 C 
ATOM     38  C   UNK A   2     -22.504  13.866   0.909  0.00  0.00    +0.000 C 
ATOM     39  N   UNK A   2     -22.282  13.284   2.202  0.00  0.00    +0.000 N 
ATOM     40  H   UNK A   2     -21.299  13.180   2.526  0.00  0.00    +0.000 HD
ATOM     41  O   UNK A   2     -23.941  13.690  -0.997  0.00  0.00    +0.000 OA
ATOM     42  CB  ALA A   3     -23.308   9.722  -1.114  0.00  0.00    +0.000 C 
ATOM     43  O   ALA A   3     -26.493  10.833  -0.861  0.00  0.00    +0.000 OA
ATOM     44  S   UNK A   5     -23.330   5.984   1.879  0.00  0.00    +0.000 S 
ATOM     45  C   UNK A   1     -23.261  12.865   3.021  0.00  0.00    +0.000 C 
ATOM     46  O   UNK A   1     -24.489  13.025   2.752  0.00  0.00    +0.000 OA
ENDROOT
BRANCH  30  47
ATOM     47  C   UNK A   4     -27.572  10.422   2.295  0.00  0.00    +0.000 C 
ATOM     48  N   UNK A   5     -26.858  11.435   2.717  0.00  0.00    +0.000 N 
ATOM     49  H   UNK A   5     -25.873  11.525   2.395  0.00  0.00    +0.000 HD
ATOM     50  O   UNK A   4     -28.718  10.163   2.695  0.00  0.00    +0.000 OA
BRANCH  48  51
ATOM     51  C   UNK A   5     -27.412  12.467   3.648  0.00  0.00    +0.000 C 
BRANCH  51  52
ATOM     52  C   UNK A   5     -27.662  12.111   5.086  0.00  0.00    +0.000 C 
ATOM     53  O   UNK A   5     -28.239  12.952   5.798  0.00  0.00    +0.000 OA
ENDBRANCH  51  52
BRANCH  51  54
ATOM     54  C   UNK A   5     -28.645  13.067   3.062  0.00  0.00    +0.000 C 
BRANCH  54  55
ATOM     55  C   UNK A   5     -28.395  13.676   1.680  0.00  0.00    +0.000 C 
BRANCH  55  56
ATOM     56  C   UNK A   5     -27.329  14.732   1.657  0.00  0.00    +0.000 C 
BRANCH  56  57
ATOM     57  N   UNK A   5     -27.602  15.594   0.500  0.00  0.00    +0.330 N 
ATOM     58  H   UNK A   5     -28.531  15.489   0.045  0.00  0.00    +0.000 HD
ATOM     59  C   UNK A   5     -26.780  16.490  -0.018  0.00  0.00    +0.000 C 
ATOM     60  N   UNK A   5     -25.571  16.697   0.511  0.00  0.00    +0.330 N 
ATOM     61  H   UNK A   5     -25.266  16.150   1.341  0.00  0.00    +0.000 HD
ATOM     62  H   UNK A   5     -24.935  17.405   0.093  0.00  0.00    +0.000 HD
ATOM     63  N   UNK A   5     -27.197  17.183  -1.097  0.00  0.00    +0.330 N 
ATOM     64  H   UNK A   5     -28.140  17.005  -1.497  0.00  0.00    +0.000 HD
ATOM     65  H   UNK A   5     -26.575  17.896  -1.530  0.00  0.00    +0.000 HD
ENDBRANCH  56  57
ENDBRANCH  55  56
ENDBRANCH  54  55
ENDBRANCH  51  54
ENDBRANCH  48  51
ENDBRANCH  30  47
BRANCH  11  66
ATOM     66  N   UNK A   2     -19.564   8.629   3.745  0.00  0.00    +0.000 N 
ATOM     67  H   UNK A   2     -20.552   8.918   3.600  0.00  0.00    +0.000 HD
ATOM     68  C   UNK A   1     -18.560   9.488   3.580  0.00  0.00    +0.000 C 
ATOM     69  O   UNK A   1     -17.390   9.185   3.920  0.00  0.00    +0.000 OA
BRANCH  68  70
ATOM     70  C   UNK A   1     -18.863  10.833   2.869  0.00  0.00    +0.000 C 
BRANCH  70  71
ATOM     71  N   UNK A   1     -18.054  11.866   3.454  0.00  0.00    +0.000 NA
ATOM     72  H   UNK A   1     -17.041  11.703   3.624  0.00  0.00    +0.000 HD
ENDBRANCH  70  71
BRANCH  70  73
ATOM     73  C   UNK A   1     -18.480  10.620   1.386  0.00  0.00    +0.000 C 
BRANCH  73  74
ATOM     74  C   UNK A   1     -18.960  11.692   0.448  0.00  0.00    +0.000 A 
ATOM     75  C   UNK A   1     -18.375  12.928   0.476  0.00  0.00    +0.000 A 
ATOM     76  C   UNK A   1     -18.795  13.915  -0.402  0.00  0.00    +0.000 A 
ATOM     77  C   UNK A   1     -19.723  13.640  -1.314  0.00  0.00    +0.000 A 
ATOM     78  C   UNK A   1     -20.351  12.377  -1.379  0.00  0.00    +0.000 A 
ATOM     79  C   UNK A   1     -19.909  11.404  -0.509  0.00  0.00    +0.000 A 
ENDBRANCH  73  74
ENDBRANCH  70  73
ENDBRANCH  68  70
ENDBRANCH  11  66
BRANCH  23  80
ATOM     80  C   UNK A   5     -20.815   5.672  -1.438  0.00  0.00    +0.000 C 
ATOM     81  N   THR A   6     -19.511   5.644  -1.443  0.00  0.00    +0.000 N 
ATOM     82  H   THR A   6     -19.008   5.253  -0.621  0.00  0.00    +0.000 HD
ATOM     83  O   UNK A   5     -21.420   6.163  -2.422  0.00  0.00    +0.000 OA
BRANCH  81  84
ATOM     84  CA  THR A   6     -18.757   6.140  -2.554  0.00  0.00    +0.000 C 
BRANCH  84  85
ATOM     85  C   THR A   6     -18.382   5.050  -3.522  0.00  0.00    +0.000 C 
ATOM     86  N   GLY A   7     -18.375   3.791  -3.059  0.00  0.00    +0.000 N 
ATOM     87  H   GLY A   7     -18.787   3.591  -2.125  0.00  0.00    +0.000 HD
ATOM     88  O   THR A   6     -18.042   5.326  -4.651  0.00  0.00    +0.000 OA
BRANCH  86  89
ATOM     89  CA  GLY A   7     -17.814   2.717  -3.821  0.00  0.00    +0.000 C 
BRANCH  89  90
ATOM     90  C   GLY A   7     -16.340   2.504  -3.735  0.00  0.00    +0.000 C 
ATOM     91  N   MET A   8     -15.674   3.278  -2.882  0.00  0.00    +0.000 N 
ATOM     92  H   MET A   8     -16.190   4.028  -2.379  0.00  0.00    +0.000 HD
ATOM     93  O   GLY A   7     -15.824   1.551  -4.306  0.00  0.00    +0.000 OA
BRANCH  91  94
ATOM     94  CA  MET A   8     -14.264   3.116  -2.629  0.00  0.00    +0.000 C 
BRANCH  94  95
ATOM     95  C   MET A   8     -14.023   1.730  -1.909  0.00  0.00    +0.000 C 
ATOM     96  O   MET A   8     -14.693   1.407  -0.939  0.00  0.00    +0.000 OA
ENDBRANCH  94  95
BRANCH  94  97
ATOM     97  CB  MET A   8     -13.784   4.240  -1.745  0.00  0.00    +0.000 C 
BRANCH  97  98
ATOM     98  CG  MET A   8     -12.295   4.205  -1.592  0.00  0.00    +0.000 C 
BRANCH  98  99
ATOM     99  SD  MET A   8     -11.681   5.651  -0.673  0.00  0.00    +0.000 S 
ATOM    100  CE  MET A   8     -12.180   6.970  -1.881  0.00  0.00    +0.000 C 
ENDBRANCH  98  99
ENDBRANCH  97  98
ENDBRANCH  94  97
ENDBRANCH  91  94
ENDBRANCH  89  90
ENDBRANCH  86  89
ENDBRANCH  84  85
BRANCH  84 101
ATOM    101  CB  THR A   6     -17.441   6.786  -2.145  0.00  0.00    +0.000 C 
ATOM    102  CG2 THR A   6     -17.770   7.987  -1.102  0.00  0.00    +0.000 C 
BRANCH 101 103
ATOM    103  OG1 THR A   6     -16.568   5.810  -1.540  0.00  0.00    +0.000 OA
ATOM    104  HG1 THR A   6     -17.005   5.431  -0.737  0.00  0.00    +0.000 HD
ENDBRANCH 101 103
ENDBRANCH  84 101
ENDBRANCH  81  84
ENDBRANCH  23  80
BRANCH   1 105
ATOM    105  N   UNK A   1     -23.502  12.685   5.435  0.00  0.00    +0.000 NA
ATOM    106  H   UNK A   1     -24.177  12.098   5.966  0.00  0.00    +0.000 HD
ENDBRANCH   1 105
BRANCH  15 107
ATOM    107  CB  ALA A   3     -15.540   4.310   3.117  0.00  0.00    +0.000 C 
BRANCH 107 108
ATOM    108  CG  ALA A   3     -14.769   3.447   2.103  0.00  0.00    +0.000 C 
BRANCH 108 109
ATOM    109  CD  ALA A   3     -13.982   2.333   2.770  0.00  0.00    +0.000 C 
BRANCH 109 110
ATOM    110  NE  ALA A   3     -14.747   1.324   3.460  0.00  0.00    +0.330 N 
ATOM    111  HE  ALA A   3     -14.767   1.345   4.500  0.00  0.00    +0.000 HD
ATOM    112  CZ  ALA A   3     -15.417   0.384   2.845  0.00  0.00    +0.000 C 
ATOM    113  NH2 ALA A   3     -16.120  -0.497   3.575  0.00  0.00    +0.330 N 
ATOM    114 HH21 ALA A   3     -16.126  -0.425   4.613  0.00  0.00    +0.000 HD
ATOM    115 HH22 ALA A   3     -16.659  -1.251   3.103  0.00  0.00    +0.000 HD
ATOM    116  NH1 ALA A   3     -15.413   0.233   1.525  0.00  0.00    +0.330 N 
ATOM    117 HH11 ALA A   3     -15.964  -0.533   1.088  0.00  0.00    +0.000 HD
ATOM    118 HH12 ALA A   3     -14.858   0.880   0.929  0.00  0.00    +0.000 HD
ENDBRANCH 109 110
ENDBRANCH 108 109
ENDBRANCH 107 108
ENDBRANCH  15 107
BRANCH  19 119
ATOM    119  C   UNK A   4     -20.168   1.720   2.512  0.00  0.00    +0.000 C 
BRANCH 119 120
ATOM    120  C   UNK A   4     -19.270   0.746   3.308  0.00  0.00    +0.000 C 
BRANCH 120 121
ATOM    121  C   UNK A   4     -20.024  -0.038   4.415  0.00  0.00    +0.000 C 
ATOM    122  O   UNK A   4     -19.365  -0.721   5.240  0.00  0.00    +0.000 OA
ATOM    123  O   UNK A   4     -21.284   0.035   4.475  0.00  0.00    +0.000 OA
ENDBRANCH 120 121
ENDBRANCH 119 120
ENDBRANCH  19 119
TORSDOF 32
REMARK  Name = ../refined-set-2016/4up5/4up5_pocket.pdb
REMARK  77 active torsions:
REMARK  status: ('A' for Active; 'I' for Inactive)
REMARK    1  A    between atoms: _1  and  _3
REMARK    2  A    between atoms: _21  and  _22
REMARK    3  A    between atoms: _26  and  _28
REMARK    4  A    between atoms: _28  and  _29
REMARK    5  A    between atoms: _28  and  _31
REMARK    6  A    between atoms: _31  and  _32
REMARK    7  A    between atoms: _32  and  _33
REMARK    8  A    between atoms: _33  and  _34
REMARK    9  A    between atoms: _43  and  _45
REMARK   10  A    between atoms: _45  and  _46
REMARK   11  A    between atoms: _45  and  _48
REMARK   12  A    between atoms: _48  and  _49
REMARK   13  A    between atoms: _52  and  _54
REMARK   14  A    between atoms: _54  and  _55
REMARK   15  A    between atoms: _54  and  _57
REMARK   16  A    between atoms: _57  and  _58
REMARK   17  A    between atoms: _58  and  ZN_243
REMARK   18  A    between atoms: _59  and  _61
REMARK   19  A    between atoms: _61  and  _62
REMARK   20  A    between atoms: _61  and  _64
REMARK   21  A    between atoms: _64  and  _65
REMARK   22  A    between atoms: _65  and  ZN_243
REMARK   23  A    between atoms: _66  and  _68
REMARK   24  A    between atoms: _68  and  _69
REMARK   25  A    between atoms: _68  and  _71
REMARK   26  A    between atoms: _71  and  _72
REMARK   27  A    between atoms: _72  and  _73
REMARK   28  A    between atoms: _73  and  _74
REMARK   29  A    between atoms: _74  and  _75
REMARK   30  A    between atoms: _79  and  _81
REMARK   31  A    between atoms: _81  and  _82
REMARK   32  A    between atoms: _81  and  _84
REMARK   33  A    between atoms: _84  and  _85
REMARK   34  A    between atoms: _91  and  _93
REMARK   35  A    between atoms: _104  and  _107
REMARK   36  A    between atoms: _107  and  _108
REMARK   37  A    between atoms: _108  and  _109
REMARK   38  A    between atoms: _109  and  _110
REMARK   39  A    between atoms: _121  and  _124
REMARK   40  A    between atoms: _124  and  _125
REMARK   41  A    between atoms: _125  and  _126
REMARK   42  A    between atoms: _131  and  _132
REMARK   43  A    between atoms: _136  and  _138
REMARK   44  A    between atoms: _138  and  _139
REMARK   45  A    between atoms: _138  and  _141
REMARK   46  A    between atoms: _141  and  _142
REMARK   47  A    between atoms: _145  and  _147
REMARK   48  A    between atoms: _147  and  _148
REMARK   49  A    between atoms: _150  and  _152
REMARK   50  A    between atoms: _152  and  _153
REMARK   51  A    between atoms: _152  and  _155
REMARK   52  A    between atoms: _155  and  _156
REMARK   53  A    between atoms: _156  and  _157
REMARK   54  A    between atoms: _159  and  _161
REMARK   55  A    between atoms: _161  and  _162
REMARK   56  A    between atoms: _161  and  _164
REMARK   57  A    between atoms: _164  and  _165
REMARK   58  A    between atoms: _175  and  _177
REMARK   59  A    between atoms: _177  and  _178
REMARK   60  A    between atoms: _181  and  _183
REMARK   61  A    between atoms: _190  and  _193
REMARK   62  A    between atoms: _193  and  _194
REMARK   63  A    between atoms: _199  and  _202
REMARK   64  A    between atoms: _202  and  _203
REMARK   65  A    between atoms: _208  and  _209
REMARK   66  A    between atoms: _213  and  _215
REMARK   67  A    between atoms: _215  and  _216
REMARK   68  A    between atoms: _215  and  _218
REMARK   69  A    between atoms: _218  and  _219
REMARK   70  A    between atoms: _222  and  _224
REMARK   71  A    between atoms: _224  and  _225
REMARK   72  A    between atoms: _224  and  _227
REMARK   73  A    between atoms: _227  and  _228
REMARK   74  A    between atoms: _231  and  _233
REMARK   75  A    between atoms: _233  and  _234
REMARK   76  A    between atoms: _233  and  _236
REMARK   77  A    between atoms: _236  and  _237
REMARK                            x       y       z     vdW  Elec       q    Type
REMARK                         _______ _______ _______ _____ _____    ______ ____
ROOT
ATOM      1  CA  ILE A   1     -13.580  10.354   3.596  0.00  0.00    +0.133 C 
ENDROOT
BRANCH   1   2
ATOM      2  N   ILE A   1     -14.594   9.592   4.357  0.00  0.00    -0.239 NA
ATOM      3  H   ILE A   1     -15.579   9.576   4.023  0.00  0.00    +0.142 HD
ENDBRANCH   1   2
BRANCH   1   4
ATOM      4  C   ILE A   1     -14.126  11.759   3.327  0.00  0.00    +0.224 C 
ATOM      5  O   ILE A   1     -15.285  11.971   3.076  0.00  0.00    -0.287 OA
ENDBRANCH   1   4
BRANCH   1   6
ATOM      6  CB  ILE A   1     -13.136   9.545   2.358  0.00  0.00    +0.023 C 
ATOM      7  CG2 ILE A   1     -14.277   9.323   1.424  0.00  0.00    +0.002 C 
BRANCH   6   8
ATOM      8  CG1 ILE A   1     -11.989  10.244   1.657  0.00  0.00    +0.002 C 
ATOM      9  CD1 ILE A   1     -10.904   9.266   1.359  0.00  0.00    +0.000 C 
ENDBRANCH   6   8
ENDBRANCH   1   6
TORSDOF 4
REMARK  Name = ../refined-set-2016/4up5/4up5_pocket.pdb
REMARK  77 active torsions:
REMARK  status: ('A' for Active; 'I' for Inactive)
REMARK    1  A    between atoms: _1  and  _3
REMARK    2  A    between atoms: _21  and  _22
REMARK    3  A    between atoms: _26  and  _28
REMARK    4  A    between atoms: _28  and  _29
REMARK    5  A    between atoms: _28  and  _31
REMARK    6  A    between atoms: _31  and  _32
REMARK    7  A    between atoms: _32  and  _33
REMARK    8  A    between atoms: _33  and  _34
REMARK    9  A    between atoms: _43  and  _45
REMARK   10  A    between atoms: _45  and  _46
REMARK   11  A    between atoms: _45  and  _48
REMARK   12  A    between atoms: _48  and  _49
REMARK   13  A    between atoms: _52  and  _54
REMARK   14  A    between atoms: _54  and  _55
REMARK   15  A    between atoms: _54  and  _57
REMARK   16  A    between atoms: _57  and  _58
REMARK   17  A    between atoms: _58  and  ZN_243
REMARK   18  A    between atoms: _59  and  _61
REMARK   19  A    between atoms: _61  and  _62
REMARK   20  A    between atoms: _61  and  _64
REMARK   21  A    between atoms: _64  and  _65
REMARK   22  A    between atoms: _65  and  ZN_243
REMARK   23  A    between atoms: _66  and  _68
REMARK   24  A    between atoms: _68  and  _69
REMARK   25  A    between atoms: _68  and  _71
REMARK   26  A    between atoms: _71  and  _72
REMARK   27  A    between atoms: _72  and  _73
REMARK   28  A    between atoms: _73  and  _74
REMARK   29  A    between atoms: _74  and  _75
REMARK   30  A    between atoms: _79  and  _81
REMARK   31  A    between atoms: _81  and  _82
REMARK   32  A    between atoms: _81  and  _84
REMARK   33  A    between atoms: _84  and  _85
REMARK   34  A    between atoms: _91  and  _93
REMARK   35  A    between atoms: _104  and  _107
REMARK   36  A    between atoms: _107  and  _108
REMARK   37  A    between atoms: _108  and  _109
REMARK   38  A    between atoms: _109  and  _110
REMARK   39  A    between atoms: _121  and  _124
REMARK   40  A    between atoms: _124  and  _125
REMARK   41  A    between atoms: _125  and  _126
REMARK   42  A    between atoms: _131  and  _132
REMARK   43  A    between atoms: _136  and  _138
REMARK   44  A    between atoms: _138  and  _139
REMARK   45  A    between atoms: _138  and  _141
REMARK   46  A    between atoms: _141  and  _142
REMARK   47  A    between atoms: _145  and  _147
REMARK   48  A    between atoms: _147  and  _148
REMARK   49  A    between atoms: _150  and  _152
REMARK   50  A    between atoms: _152  and  _153
REMARK   51  A    between atoms: _152  and  _155
REMARK   52  A    between atoms: _155  and  _156
REMARK   53  A    between atoms: _156  and  _157
REMARK   54  A    between atoms: _159  and  _161
REMARK   55  A    between atoms: _161  and  _162
REMARK   56  A    between atoms: _161  and  _164
REMARK   57  A    between atoms: _164  and  _165
REMARK   58  A    between atoms: _175  and  _177
REMARK   59  A    between atoms: _177  and  _178
REMARK   60  A    between atoms: _181  and  _183
REMARK   61  A    between atoms: _190  and  _193
REMARK   62  A    between atoms: _193  and  _194
REMARK   63  A    between atoms: _199  and  _202
REMARK   64  A    between atoms: _202  and  _203
REMARK   65  A    between atoms: _208  and  _209
REMARK   66  A    between atoms: _213  and  _215
REMARK   67  A    between atoms: _215  and  _216
REMARK   68  A    between atoms: _215  and  _218
REMARK   69  A    between atoms: _218  and  _219
REMARK   70  A    between atoms: _222  and  _224
REMARK   71  A    between atoms: _224  and  _225
REMARK   72  A    between atoms: _224  and  _227
REMARK   73  A    between atoms: _227  and  _228
REMARK   74  A    between atoms: _231  and  _233
REMARK   75  A    between atoms: _233  and  _234
REMARK   76  A    between atoms: _233  and  _236
REMARK   77  A    between atoms: _236  and  _237
REMARK                            x       y       z     vdW  Elec       q    Type
REMARK                         _______ _______ _______ _____ _____    ______ ____
ROOT
ATOM      1 ZN   UNK A   1     -16.964  17.232  -3.427  0.00  0.00    +0.000 Zn
ATOM      2  S   UNK A   3     -18.090  15.348  -4.357  0.00  0.00    +0.000 S 
ATOM      3  C   UNK A   3     -17.344  13.741  -3.869  0.00  0.00    +0.000 C 
ATOM      4  C   UNK A   3     -16.279  13.316  -4.864  0.00  0.00    +0.000 C 
ATOM      5  C   UNK A   3     -16.755  13.441  -6.285  0.00  0.00    +0.000 C 
ATOM      6  N   ASP A   4     -17.743  12.606  -6.635  0.00  0.00    +0.000 N 
ATOM      7  H   ASP A   4     -18.161  11.978  -5.919  0.00  0.00    +0.000 HD
ATOM      8  CA  ASP A   4     -18.256  12.563  -8.045  0.00  0.00    +0.000 C 
ATOM      9  C   ASP A   4     -18.791  13.920  -8.543  0.00  0.00    +0.000 C 
ATOM     10  N   LEU A   5     -19.153  14.812  -7.623  0.00  0.00    +0.000 N 
ATOM     11  H   LEU A   5     -19.121  14.549  -6.617  0.00  0.00    +0.000 HD
ATOM     12  CA  LEU A   5     -19.590  16.138  -7.996  0.00  0.00    +0.000 C 
ATOM     13  C   LEU A   5     -18.464  17.101  -8.164  0.00  0.00    +0.000 C 
ATOM     14  N   UNK A   6     -17.338  16.915  -7.500  0.00  0.00    +0.000 N 
ATOM     15  H   UNK A   6     -17.216  16.064  -6.914  0.00  0.00    +0.000 HD
ATOM     16  C   UNK A   6     -16.271  17.893  -7.585  0.00  0.00    +0.000 C 
ATOM     17  C   UNK A   6     -15.670  18.048  -6.229  0.00  0.00    +0.000 C 
ATOM     18  O   LEU A   5     -18.559  17.976  -8.979  0.00  0.00    +0.000 OA
ATOM     19  O   ASP A   4     -18.832  14.163  -9.741  0.00  0.00    +0.000 OA
ATOM     20  O   UNK A   3     -16.163  14.232  -7.063  0.00  0.00    +0.000 OA
ATOM     21  S   UNK A   6     -16.883  18.796  -5.097  0.00  0.00    +0.000 S 
ENDROOT
BRANCH   4  22
ATOM     22  N   UNK A   3     -15.029  13.982  -4.635  0.00  0.00    +0.000 N 
ATOM     23  H   UNK A   3     -15.019  14.871  -4.095  0.00  0.00    +0.000 HD
ATOM     24  C   ALA A   2     -13.879  13.488  -5.099  0.00  0.00    +0.000 C 
ATOM     25  O   ALA A   2     -13.794  12.383  -5.677  0.00  0.00    +0.000 OA
BRANCH  24  26
ATOM     26  CA  ALA A   2     -12.660  14.352  -4.914  0.00  0.00    +0.000 C 
ATOM     27  CB  ALA A   2     -12.208  14.864  -6.257  0.00  0.00    +0.000 C 
BRANCH  26  28
ATOM     28  N   ALA A   2     -11.593  13.584  -4.327  0.00  0.00    +0.000 N 
ATOM     29  C   UNK A   1     -11.072  13.824  -3.138  0.00  0.00    +0.000 C 
ATOM     30  O   UNK A   1     -11.275  14.833  -2.463  0.00  0.00    +0.000 OA
ATOM     31  H   ALA A   2     -11.208  12.789  -4.875  0.00  0.00    +0.000 HD
BRANCH  29  32
ATOM     32  C   UNK A   1     -10.079  12.785  -2.641  0.00  0.00    +0.000 C 
BRANCH  32  33
ATOM     33  N   UNK A   1      -8.993  13.452  -1.955  0.00  0.00    +0.000 NA
ATOM     34  H   UNK A   1      -9.159  13.879  -1.021  0.00  0.00    +0.000 HD
ENDBRANCH  32  33
BRANCH  32  35
ATOM     35  C   UNK A   1     -10.722  11.785  -1.659  0.00  0.00    +0.000 C 
BRANCH  35  36
ATOM     36  C   UNK A   1     -11.869  11.105  -2.237  0.00  0.00    +0.000 A 
ATOM     37  C   UNK A   1     -13.232  11.311  -1.883  0.00  0.00    +0.000 A 
ATOM     38  C   UNK A   1     -13.905  12.169  -0.968  0.00  0.00    +0.000 A 
ATOM     39  C   UNK A   1     -15.253  12.124  -0.894  0.00  0.00    +0.000 A 
ATOM     40  C   UNK A   1     -16.022  11.255  -1.731  0.00  0.00    +0.000 A 
ATOM     41  C   UNK A   1     -15.419  10.403  -2.617  0.00  0.00    +0.000 A 
ATOM     42  C   UNK A   1     -14.005  10.455  -2.707  0.00  0.00    +0.000 A 
ATOM     43  N   UNK A   1     -13.138   9.741  -3.505  0.00  0.00    +0.000 N 
ATOM     44  H   UNK A   1     -13.403   9.039  -4.225  0.00  0.00    +0.000 HD
ATOM     45  C   UNK A   1     -11.852  10.127  -3.175  0.00  0.00    +0.000 A 
ENDBRANCH  35  36
ENDBRANCH  32  35
ENDBRANCH  29  32
ENDBRANCH  26  28
ENDBRANCH  24  26
ENDBRANCH   4  22
BRANCH  16  46
ATOM     46  C   UNK A   6     -15.210  17.560  -8.684  0.00  0.00    +0.000 C 
ATOM     47  O   UNK A   6     -15.367  16.572  -9.428  0.00  0.00    +0.000 OA
ENDBRANCH  16  46
BRANCH   1  48
ATOM     48  S   UNK A   1     -18.041  18.107  -1.549  0.00  0.00    +0.000 S 
BRANCH  48  49
ATOM     49  C   UNK A   1     -18.157  19.907  -2.011  0.00  0.00    +0.000 C 
BRANCH  49  50
ATOM     50  C   UNK A   1     -16.989  20.749  -1.487  0.00  0.00    +0.000 C 
BRANCH  50  51
ATOM     51  N   UNK A   1     -15.750  20.429  -2.208  0.00  0.00    +0.000 NA
ATOM     52  H   UNK A   1     -15.680  19.543  -2.748  0.00  0.00    +0.000 HD
ENDBRANCH  50  51
BRANCH  50  53
ATOM     53  C   UNK A   1     -16.869  20.634   0.040  0.00  0.00    +0.000 C 
ATOM     54  O   UNK A   1     -17.750  21.125   0.794  0.00  0.00    +0.000 OA
ENDBRANCH  50  53
ENDBRANCH  49  50
ENDBRANCH  48  49
ENDBRANCH   1  48
BRANCH   1  55
ATOM     55  S   UNK A   1     -14.816  16.697  -2.741  0.00  0.00    +0.000 S 
BRANCH  55  56
ATOM     56  C   UNK A   1     -15.144  16.012  -1.083  0.00  0.00    +0.000 C 
BRANCH  56  57
ATOM     57  C   UNK A   1     -13.905  15.760  -0.288  0.00  0.00    +0.000 C 
BRANCH  57  58
ATOM     58  N   UNK A   1     -14.137  15.209   1.013  0.00  0.00    +0.000 NA
ATOM     59  H   UNK A   1     -15.081  15.308   1.439  0.00  0.00    +0.000 HD
ENDBRANCH  57  58
BRANCH  57  60
ATOM     60  C   UNK A   1     -13.081  17.058  -0.153  0.00  0.00    +0.000 C 
ATOM     61  O   UNK A   1     -13.622  18.123   0.059  0.00  0.00    +0.000 OA
ENDBRANCH  57  60
ENDBRANCH  56  57
ENDBRANCH  55  56
ENDBRANCH   1  55
BRANCH   8  62
ATOM     62  CB  ASP A   4     -19.333  11.500  -8.194  0.00  0.00    +0.000 C 
BRANCH  62  63
ATOM     63  CG  ASP A   4     -18.771  10.078  -8.207  0.00  0.00    +0.000 C 
ATOM     64  OD2 ASP A   4     -19.634   9.192  -8.084  0.00  0.00    +0.000 OA
ATOM     65  OD1 ASP A   4     -17.499   9.826  -8.332  0.00  0.00    +0.000 OA
ENDBRANCH  62  63
ENDBRANCH   8  62
BRANCH  12  66
ATOM     66  CB  LEU A   5     -20.623  16.619  -7.000  0.00  0.00    +0.000 C 
BRANCH  66  67
ATOM     67  CG  LEU A   5     -21.888  15.756  -6.950  0.00  0.00    +0.000 C 
ATOM     68  CD2 LEU A   5     -22.898  16.465  -6.049  0.00  0.00    +0.000 C 
ATOM     69  CD1 LEU A   5     -22.480  15.563  -8.346  0.00  0.00    +0.000 C 
ENDBRANCH  66  67
ENDBRANCH  12  66
TORSDOF 22
REMARK  Name = ../refined-set-2016/4up5/4up5_pocket.pdb
REMARK  77 active torsions:
REMARK  status: ('A' for Active; 'I' for Inactive)
REMARK    1  A    between atoms: _1  and  _3
REMARK    2  A    between atoms: _21  and  _22
REMARK    3  A    between atoms: _26  and  _28
REMARK    4  A    between atoms: _28  and  _29
REMARK    5  A    between atoms: _28  and  _31
REMARK    6  A    between atoms: _31  and  _32
REMARK    7  A    between atoms: _32  and  _33
REMARK    8  A    between atoms: _33  and  _34
REMARK    9  A    between atoms: _43  and  _45
REMARK   10  A    between atoms: _45  and  _46
REMARK   11  A    between atoms: _45  and  _48
REMARK   12  A    between atoms: _48  and  _49
REMARK   13  A    between atoms: _52  and  _54
REMARK   14  A    between atoms: _54  and  _55
REMARK   15  A    between atoms: _54  and  _57
REMARK   16  A    between atoms: _57  and  _58
REMARK   17  A    between atoms: _58  and  ZN_243
REMARK   18  A    between atoms: _59  and  _61
REMARK   19  A    between atoms: _61  and  _62
REMARK   20  A    between atoms: _61  and  _64
REMARK   21  A    between atoms: _64  and  _65
REMARK   22  A    between atoms: _65  and  ZN_243
REMARK   23  A    between atoms: _66  and  _68
REMARK   24  A    between atoms: _68  and  _69
REMARK   25  A    between atoms: _68  and  _71
REMARK   26  A    between atoms: _71  and  _72
REMARK   27  A    between atoms: _72  and  _73
REMARK   28  A    between atoms: _73  and  _74
REMARK   29  A    between atoms: _74  and  _75
REMARK   30  A    between atoms: _79  and  _81
REMARK   31  A    between atoms: _81  and  _82
REMARK   32  A    between atoms: _81  and  _84
REMARK   33  A    between atoms: _84  and  _85
REMARK   34  A    between atoms: _91  and  _93
REMARK   35  A    between atoms: _104  and  _107
REMARK   36  A    between atoms: _107  and  _108
REMARK   37  A    between atoms: _108  and  _109
REMARK   38  A    between atoms: _109  and  _110
REMARK   39  A    between atoms: _121  and  _124
REMARK   40  A    between atoms: _124  and  _125
REMARK   41  A    between atoms: _125  and  _126
REMARK   42  A    between atoms: _131  and  _132
REMARK   43  A    between atoms: _136  and  _138
REMARK   44  A    between atoms: _138  and  _139
REMARK   45  A    between atoms: _138  and  _141
REMARK   46  A    between atoms: _141  and  _142
REMARK   47  A    between atoms: _145  and  _147
REMARK   48  A    between atoms: _147  and  _148
REMARK   49  A    between atoms: _150  and  _152
REMARK   50  A    between atoms: _152  and  _153
REMARK   51  A    between atoms: _152  and  _155
REMARK   52  A    between atoms: _155  and  _156
REMARK   53  A    between atoms: _156  and  _157
REMARK   54  A    between atoms: _159  and  _161
REMARK   55  A    between atoms: _161  and  _162
REMARK   56  A    between atoms: _161  and  _164
REMARK   57  A    between atoms: _164  and  _165
REMARK   58  A    between atoms: _175  and  _177
REMARK   59  A    between atoms: _177  and  _178
REMARK   60  A    between atoms: _181  and  _183
REMARK   61  A    between atoms: _190  and  _193
REMARK   62  A    between atoms: _193  and  _194
REMARK   63  A    between atoms: _199  and  _202
REMARK   64  A    between atoms: _202  and  _203
REMARK   65  A    between atoms: _208  and  _209
REMARK   66  A    between atoms: _213  and  _215
REMARK   67  A    between atoms: _215  and  _216
REMARK   68  A    between atoms: _215  and  _218
REMARK   69  A    between atoms: _218  and  _219
REMARK   70  A    between atoms: _222  and  _224
REMARK   71  A    between atoms: _224  and  _225
REMARK   72  A    between atoms: _224  and  _227
REMARK   73  A    between atoms: _227  and  _228
REMARK   74  A    between atoms: _231  and  _233
REMARK   75  A    between atoms: _233  and  _234
REMARK   76  A    between atoms: _233  and  _236
REMARK   77  A    between atoms: _236  and  _237
REMARK                            x       y       z     vdW  Elec       q    Type
REMARK                         _______ _______ _______ _____ _____    ______ ____
ROOT
ATOM      1  CG  LYS A   1     -20.328  18.352   1.590  0.00  0.00    -0.000 C 
ENDROOT
BRANCH   1   2
ATOM      2  CB  LYS A   1     -19.497  17.088   1.675  0.00  0.00    +0.025 C 
BRANCH   2   3
ATOM      3  CA  LYS A   1     -18.289  17.316   2.549  0.00  0.00    +0.133 C 
BRANCH   3   4
ATOM      4  N   LYS A   1     -17.320  18.232   1.900  0.00  0.00    -0.239 NA
ATOM      5  H   LYS A   1     -17.192  18.183   0.869  0.00  0.00    +0.142 HD
ENDBRANCH   3   4
BRANCH   3   6
ATOM      6  C   LYS A   1     -17.689  15.968   2.860  0.00  0.00    +0.224 C 
ATOM      7  O   LYS A   1     -16.811  15.513   2.114  0.00  0.00    -0.287 OA
ENDBRANCH   3   6
ENDBRANCH   2   3
ENDBRANCH   1   2
BRANCH   1   8
ATOM      8  CD  LYS A   1     -21.419  18.315   0.578  0.00  0.00    -0.024 C 
BRANCH   8   9
ATOM      9  CE  LYS A   1     -22.016  19.730   0.538  0.00  0.00    -0.086 C 
BRANCH   9  10
ATOM     10  NZ  LYS A   1     -23.436  19.699   0.133  0.00  0.00    +0.380 N 
ATOM     11  HZ1 LYS A   1     -23.977  19.129   0.814  0.00  0.00    -0.089 HD
ATOM     12  HZ2 LYS A   1     -23.811  20.669   0.115  0.00  0.00    -0.089 HD
ATOM     13  HZ3 LYS A   1     -23.516  19.278  -0.814  0.00  0.00    -0.089 HD
ENDBRANCH   9  10
ENDBRANCH   8   9
ENDBRANCH   1   8
TORSDOF 7
REMARK  Name = ../refined-set-2016/4up5/4up5_pocket.pdb
REMARK  77 active torsions:
REMARK  status: ('A' for Active; 'I' for Inactive)
REMARK    1  A    between atoms: _1  and  _3
REMARK    2  A    between atoms: _21  and  _22
REMARK    3  A    between atoms: _26  and  _28
REMARK    4  A    between atoms: _28  and  _29
REMARK    5  A    between atoms: _28  and  _31
REMARK    6  A    between atoms: _31  and  _32
REMARK    7  A    between atoms: _32  and  _33
REMARK    8  A    between atoms: _33  and  _34
REMARK    9  A    between atoms: _43  and  _45
REMARK   10  A    between atoms: _45  and  _46
REMARK   11  A    between atoms: _45  and  _48
REMARK   12  A    between atoms: _48  and  _49
REMARK   13  A    between atoms: _52  and  _54
REMARK   14  A    between atoms: _54  and  _55
REMARK   15  A    between atoms: _54  and  _57
REMARK   16  A    between atoms: _57  and  _58
REMARK   17  A    between atoms: _58  and  ZN_243
REMARK   18  A    between atoms: _59  and  _61
REMARK   19  A    between atoms: _61  and  _62
REMARK   20  A    between atoms: _61  and  _64
REMARK   21  A    between atoms: _64  and  _65
REMARK   22  A    between atoms: _65  and  ZN_243
REMARK   23  A    between atoms: _66  and  _68
REMARK   24  A    between atoms: _68  and  _69
REMARK   25  A    between atoms: _68  and  _71
REMARK   26  A    between atoms: _71  and  _72
REMARK   27  A    between atoms: _72  and  _73
REMARK   28  A    between atoms: _73  and  _74
REMARK   29  A    between atoms: _74  and  _75
REMARK   30  A    between atoms: _79  and  _81
REMARK   31  A    between atoms: _81  and  _82
REMARK   32  A    between atoms: _81  and  _84
REMARK   33  A    between atoms: _84  and  _85
REMARK   34  A    between atoms: _91  and  _93
REMARK   35  A    between atoms: _104  and  _107
REMARK   36  A    between atoms: _107  and  _108
REMARK   37  A    between atoms: _108  and  _109
REMARK   38  A    between atoms: _109  and  _110
REMARK   39  A    between atoms: _121  and  _124
REMARK   40  A    between atoms: _124  and  _125
REMARK   41  A    between atoms: _125  and  _126
REMARK   42  A    between atoms: _131  and  _132
REMARK   43  A    between atoms: _136  and  _138
REMARK   44  A    between atoms: _138  and  _139
REMARK   45  A    between atoms: _138  and  _141
REMARK   46  A    between atoms: _141  and  _142
REMARK   47  A    between atoms: _145  and  _147
REMARK   48  A    between atoms: _147  and  _148
REMARK   49  A    between atoms: _150  and  _152
REMARK   50  A    between atoms: _152  and  _153
REMARK   51  A    between atoms: _152  and  _155
REMARK   52  A    between atoms: _155  and  _156
REMARK   53  A    between atoms: _156  and  _157
REMARK   54  A    between atoms: _159  and  _161
REMARK   55  A    between atoms: _161  and  _162
REMARK   56  A    between atoms: _161  and  _164
REMARK   57  A    between atoms: _164  and  _165
REMARK   58  A    between atoms: _175  and  _177
REMARK   59  A    between atoms: _177  and  _178
REMARK   60  A    between atoms: _181  and  _183
REMARK   61  A    between atoms: _190  and  _193
REMARK   62  A    between atoms: _193  and  _194
REMARK   63  A    between atoms: _199  and  _202
REMARK   64  A    between atoms: _202  and  _203
REMARK   65  A    between atoms: _208  and  _209
REMARK   66  A    between atoms: _213  and  _215
REMARK   67  A    between atoms: _215  and  _216
REMARK   68  A    between atoms: _215  and  _218
REMARK   69  A    between atoms: _218  and  _219
REMARK   70  A    between atoms: _222  and  _224
REMARK   71  A    between atoms: _224  and  _225
REMARK   72  A    between atoms: _224  and  _227
REMARK   73  A    between atoms: _227  and  _228
REMARK   74  A    between atoms: _231  and  _233
REMARK   75  A    between atoms: _233  and  _234
REMARK   76  A    between atoms: _233  and  _236
REMARK   77  A    between atoms: _236  and  _237
REMARK                            x       y       z     vdW  Elec       q    Type
REMARK                         _______ _______ _______ _____ _____    ______ ____
ROOT
ATOM      1  CA  THR A   2     -13.062   7.068  -6.221  0.00  0.00    +0.176 C 
ENDROOT
BRANCH   1   3
ATOM      2  C   THR A   1     -11.684   8.881  -7.057  0.00  0.00    +0.241 C 
ATOM      3  N   THR A   2     -12.891   8.446  -6.733  0.00  0.00    -0.295 N 
ATOM      4  H   THR A   2     -13.716   9.070  -6.838  0.00  0.00    +0.150 HD
ATOM      5  O   THR A   1     -10.603   8.256  -6.907  0.00  0.00    -0.274 OA
BRANCH   2   6
ATOM      6  CA  THR A   1     -11.667  10.293  -7.647  0.00  0.00    +0.172 C 
BRANCH   6   7
ATOM      7  N   THR A   1     -10.307  10.687  -7.702  0.00  0.00    -0.236 NA
ATOM      8  H   THR A   1      -9.830  10.636  -8.625  0.00  0.00    +0.142 HD
ENDBRANCH   6   7
BRANCH   6   9
ATOM      9  CB  THR A   1     -12.255  10.205  -9.038  0.00  0.00    +0.135 C 
ATOM     10  CG2 THR A   1     -12.161  11.577  -9.691  0.00  0.00    +0.034 C 
BRANCH   9  11
ATOM     11  OG1 THR A   1     -11.508   9.264  -9.831  0.00  0.00    -0.383 OA
ATOM     12  HG1 THR A   1     -11.901   9.214 -10.738  0.00  0.00    +0.210 HD
ENDBRANCH   9  11
ENDBRANCH   6   9
ENDBRANCH   2   6
ENDBRANCH   1   3
BRANCH   1  13
ATOM     13  C   THR A   2     -12.497   6.047  -7.210  0.00  0.00    +0.243 C 
ATOM     14  O   THR A   2     -11.746   5.120  -6.872  0.00  0.00    -0.273 OA
ATOM     15  N   HIS A   3     -12.919   6.153  -8.449  0.00  0.00    -0.298 N 
ATOM     16  H   HIS A   3     -13.519   6.949  -8.746  0.00  0.00    +0.150 HD
BRANCH  15  17
ATOM     17  CA  HIS A   3     -12.529   5.143  -9.371  0.00  0.00    +0.143 C 
BRANCH  17  18
ATOM     18  C   HIS A   3     -11.059   5.131  -9.603  0.00  0.00    +0.227 C 
ATOM     19  O   HIS A   3     -10.441   4.037  -9.684  0.00  0.00    -0.286 OA
ENDBRANCH  17  18
BRANCH  17  20
ATOM     20  CB  HIS A   3     -13.288   5.286 -10.674  0.00  0.00    +0.075 C 
BRANCH  20  21
ATOM     21  CG  HIS A   3     -14.713   4.957 -10.518  0.00  0.00    +0.082 A 
ATOM     22  CD2 HIS A   3     -15.358   4.363  -9.481  0.00  0.00    +0.115 A 
ATOM     23  NE2 HIS A   3     -16.685   4.316  -9.817  0.00  0.00    -0.221 NA
ATOM     24  CE1 HIS A   3     -16.839   4.825 -11.023  0.00  0.00    +0.199 A 
ATOM     25  ND1 HIS A   3     -15.666   5.236 -11.463  0.00  0.00    -0.227 NA
ENDBRANCH  20  21
ENDBRANCH  17  20
ENDBRANCH  15  17
ENDBRANCH   1  13
BRANCH   1  26
ATOM     26  CB  THR A   2     -14.511   6.801  -5.876  0.00  0.00    +0.137 C 
ATOM     27  CG2 THR A   2     -14.679   5.338  -5.419  0.00  0.00    +0.034 C 
BRANCH  26  28
ATOM     28  OG1 THR A   2     -14.864   7.724  -4.869  0.00  0.00    -0.382 OA
ATOM     29  HG1 THR A   2     -14.747   8.645  -5.212  0.00  0.00    +0.210 HD
ENDBRANCH  26  28
ENDBRANCH   1  26
TORSDOF 12
REMARK  Name = ../refined-set-2016/4up5/4up5_pocket.pdb
REMARK  77 active torsions:
REMARK  status: ('A' for Active; 'I' for Inactive)
REMARK    1  A    between atoms: _1  and  _3
REMARK    2  A    between atoms: _21  and  _22
REMARK    3  A    between atoms: _26  and  _28
REMARK    4  A    between atoms: _28  and  _29
REMARK    5  A    between atoms: _28  and  _31
REMARK    6  A    between atoms: _31  and  _32
REMARK    7  A    between atoms: _32  and  _33
REMARK    8  A    between atoms: _33  and  _34
REMARK    9  A    between atoms: _43  and  _45
REMARK   10  A    between atoms: _45  and  _46
REMARK   11  A    between atoms: _45  and  _48
REMARK   12  A    between atoms: _48  and  _49
REMARK   13  A    between atoms: _52  and  _54
REMARK   14  A    between atoms: _54  and  _55
REMARK   15  A    between atoms: _54  and  _57
REMARK   16  A    between atoms: _57  and  _58
REMARK   17  A    between atoms: _58  and  ZN_243
REMARK   18  A    between atoms: _59  and  _61
REMARK   19  A    between atoms: _61  and  _62
REMARK   20  A    between atoms: _61  and  _64
REMARK   21  A    between atoms: _64  and  _65
REMARK   22  A    between atoms: _65  and  ZN_243
REMARK   23  A    between atoms: _66  and  _68
REMARK   24  A    between atoms: _68  and  _69
REMARK   25  A    between atoms: _68  and  _71
REMARK   26  A    between atoms: _71  and  _72
REMARK   27  A    between atoms: _72  and  _73
REMARK   28  A    between atoms: _73  and  _74
REMARK   29  A    between atoms: _74  and  _75
REMARK   30  A    between atoms: _79  and  _81
REMARK   31  A    between atoms: _81  and  _82
REMARK   32  A    between atoms: _81  and  _84
REMARK   33  A    between atoms: _84  and  _85
REMARK   34  A    between atoms: _91  and  _93
REMARK   35  A    between atoms: _104  and  _107
REMARK   36  A    between atoms: _107  and  _108
REMARK   37  A    between atoms: _108  and  _109
REMARK   38  A    between atoms: _109  and  _110
REMARK   39  A    between atoms: _121  and  _124
REMARK   40  A    between atoms: _124  and  _125
REMARK   41  A    between atoms: _125  and  _126
REMARK   42  A    between atoms: _131  and  _132
REMARK   43  A    between atoms: _136  and  _138
REMARK   44  A    between atoms: _138  and  _139
REMARK   45  A    between atoms: _138  and  _141
REMARK   46  A    between atoms: _141  and  _142
REMARK   47  A    between atoms: _145  and  _147
REMARK   48  A    between atoms: _147  and  _148
REMARK   49  A    between atoms: _150  and  _152
REMARK   50  A    between atoms: _152  and  _153
REMARK   51  A    between atoms: _152  and  _155
REMARK   52  A    between atoms: _155  and  _156
REMARK   53  A    between atoms: _156  and  _157
REMARK   54  A    between atoms: _159  and  _161
REMARK   55  A    between atoms: _161  and  _162
REMARK   56  A    between atoms: _161  and  _164
REMARK   57  A    between atoms: _164  and  _165
REMARK   58  A    between atoms: _175  and  _177
REMARK   59  A    between atoms: _177  and  _178
REMARK   60  A    between atoms: _181  and  _183
REMARK   61  A    between atoms: _190  and  _193
REMARK   62  A    between atoms: _193  and  _194
REMARK   63  A    between atoms: _199  and  _202
REMARK   64  A    between atoms: _202  and  _203
REMARK   65  A    between atoms: _208  and  _209
REMARK   66  A    between atoms: _213  and  _215
REMARK   67  A    between atoms: _215  and  _216
REMARK   68  A    between atoms: _215  and  _218
REMARK   69  A    between atoms: _218  and  _219
REMARK   70  A    between atoms: _222  and  _224
REMARK   71  A    between atoms: _224  and  _225
REMARK   72  A    between atoms: _224  and  _227
REMARK   73  A    between atoms: _227  and  _228
REMARK   74  A    between atoms: _231  and  _233
REMARK   75  A    between atoms: _233  and  _234
REMARK   76  A    between atoms: _233  and  _236
REMARK   77  A    between atoms: _236  and  _237
REMARK                            x       y       z     vdW  Elec       q    Type
REMARK                         _______ _______ _______ _____ _____    ______ ____
ROOT
ATOM      1  O   HOH     1     -22.980  16.034  -2.091  0.00  0.00    +0.000 OA
ENDROOT
TORSDOF 0
REMARK  Name = ../refined-set-2016/4up5/4up5_pocket.pdb
REMARK  77 active torsions:
REMARK  status: ('A' for Active; 'I' for Inactive)
REMARK    1  A    between atoms: _1  and  _3
REMARK    2  A    between atoms: _21  and  _22
REMARK    3  A    between atoms: _26  and  _28
REMARK    4  A    between atoms: _28  and  _29
REMARK    5  A    between atoms: _28  and  _31
REMARK    6  A    between atoms: _31  and  _32
REMARK    7  A    between atoms: _32  and  _33
REMARK    8  A    between atoms: _33  and  _34
REMARK    9  A    between atoms: _43  and  _45
REMARK   10  A    between atoms: _45  and  _46
REMARK   11  A    between atoms: _45  and  _48
REMARK   12  A    between atoms: _48  and  _49
REMARK   13  A    between atoms: _52  and  _54
REMARK   14  A    between atoms: _54  and  _55
REMARK   15  A    between atoms: _54  and  _57
REMARK   16  A    between atoms: _57  and  _58
REMARK   17  A    between atoms: _58  and  ZN_243
REMARK   18  A    between atoms: _59  and  _61
REMARK   19  A    between atoms: _61  and  _62
REMARK   20  A    between atoms: _61  and  _64
REMARK   21  A    between atoms: _64  and  _65
REMARK   22  A    between atoms: _65  and  ZN_243
REMARK   23  A    between atoms: _66  and  _68
REMARK   24  A    between atoms: _68  and  _69
REMARK   25  A    between atoms: _68  and  _71
REMARK   26  A    between atoms: _71  and  _72
REMARK   27  A    between atoms: _72  and  _73
REMARK   28  A    between atoms: _73  and  _74
REMARK   29  A    between atoms: _74  and  _75
REMARK   30  A    between atoms: _79  and  _81
REMARK   31  A    between atoms: _81  and  _82
REMARK   32  A    between atoms: _81  and  _84
REMARK   33  A    between atoms: _84  and  _85
REMARK   34  A    between atoms: _91  and  _93
REMARK   35  A    between atoms: _104  and  _107
REMARK   36  A    between atoms: _107  and  _108
REMARK   37  A    between atoms: _108  and  _109
REMARK   38  A    between atoms: _109  and  _110
REMARK   39  A    between atoms: _121  and  _124
REMARK   40  A    between atoms: _124  and  _125
REMARK   41  A    between atoms: _125  and  _126
REMARK   42  A    between atoms: _131  and  _132
REMARK   43  A    between atoms: _136  and  _138
REMARK   44  A    between atoms: _138  and  _139
REMARK   45  A    between atoms: _138  and  _141
REMARK   46  A    between atoms: _141  and  _142
REMARK   47  A    between atoms: _145  and  _147
REMARK   48  A    between atoms: _147  and  _148
REMARK   49  A    between atoms: _150  and  _152
REMARK   50  A    between atoms: _152  and  _153
REMARK   51  A    between atoms: _152  and  _155
REMARK   52  A    between atoms: _155  and  _156
REMARK   53  A    between atoms: _156  and  _157
REMARK   54  A    between atoms: _159  and  _161
REMARK   55  A    between atoms: _161  and  _162
REMARK   56  A    between atoms: _161  and  _164
REMARK   57  A    between atoms: _164  and  _165
REMARK   58  A    between atoms: _175  and  _177
REMARK   59  A    between atoms: _177  and  _178
REMARK   60  A    between atoms: _181  and  _183
REMARK   61  A    between atoms: _190  and  _193
REMARK   62  A    between atoms: _193  and  _194
REMARK   63  A    between atoms: _199  and  _202
REMARK   64  A    between atoms: _202  and  _203
REMARK   65  A    between atoms: _208  and  _209
REMARK   66  A    between atoms: _213  and  _215
REMARK   67  A    between atoms: _215  and  _216
REMARK   68  A    between atoms: _215  and  _218
REMARK   69  A    between atoms: _218  and  _219
REMARK   70  A    between atoms: _222  and  _224
REMARK   71  A    between atoms: _224  and  _225
REMARK   72  A    between atoms: _224  and  _227
REMARK   73  A    between atoms: _227  and  _228
REMARK   74  A    between atoms: _231  and  _233
REMARK   75  A    between atoms: _233  and  _234
REMARK   76  A    between atoms: _233  and  _236
REMARK   77  A    between atoms: _236  and  _237
REMARK                            x       y       z     vdW  Elec       q    Type
REMARK                         _______ _______ _______ _____ _____    ______ ____
ROOT
ATOM      1  O   HOH     1     -20.508  16.845  -3.055  0.00  0.00    +0.000 OA
ENDROOT
TORSDOF 0
REMARK  Name = ../refined-set-2016/4up5/4up5_pocket.pdb
REMARK  77 active torsions:
REMARK  status: ('A' for Active; 'I' for Inactive)
REMARK    1  A    between atoms: _1  and  _3
REMARK    2  A    between atoms: _21  and  _22
REMARK    3  A    between atoms: _26  and  _28
REMARK    4  A    between atoms: _28  and  _29
REMARK    5  A    between atoms: _28  and  _31
REMARK    6  A    between atoms: _31  and  _32
REMARK    7  A    between atoms: _32  and  _33
REMARK    8  A    between atoms: _33  and  _34
REMARK    9  A    between atoms: _43  and  _45
REMARK   10  A    between atoms: _45  and  _46
REMARK   11  A    between atoms: _45  and  _48
REMARK   12  A    between atoms: _48  and  _49
REMARK   13  A    between atoms: _52  and  _54
REMARK   14  A    between atoms: _54  and  _55
REMARK   15  A    between atoms: _54  and  _57
REMARK   16  A    between atoms: _57  and  _58
REMARK   17  A    between atoms: _58  and  ZN_243
REMARK   18  A    between atoms: _59  and  _61
REMARK   19  A    between atoms: _61  and  _62
REMARK   20  A    between atoms: _61  and  _64
REMARK   21  A    between atoms: _64  and  _65
REMARK   22  A    between atoms: _65  and  ZN_243
REMARK   23  A    between atoms: _66  and  _68
REMARK   24  A    between atoms: _68  and  _69
REMARK   25  A    between atoms: _68  and  _71
REMARK   26  A    between atoms: _71  and  _72
REMARK   27  A    between atoms: _72  and  _73
REMARK   28  A    between atoms: _73  and  _74
REMARK   29  A    between atoms: _74  and  _75
REMARK   30  A    between atoms: _79  and  _81
REMARK   31  A    between atoms: _81  and  _82
REMARK   32  A    between atoms: _81  and  _84
REMARK   33  A    between atoms: _84  and  _85
REMARK   34  A    between atoms: _91  and  _93
REMARK   35  A    between atoms: _104  and  _107
REMARK   36  A    between atoms: _107  and  _108
REMARK   37  A    between atoms: _108  and  _109
REMARK   38  A    between atoms: _109  and  _110
REMARK   39  A    between atoms: _121  and  _124
REMARK   40  A    between atoms: _124  and  _125
REMARK   41  A    between atoms: _125  and  _126
REMARK   42  A    between atoms: _131  and  _132
REMARK   43  A    between atoms: _136  and  _138
REMARK   44  A    between atoms: _138  and  _139
REMARK   45  A    between atoms: _138  and  _141
REMARK   46  A    between atoms: _141  and  _142
REMARK   47  A    between atoms: _145  and  _147
REMARK   48  A    between atoms: _147  and  _148
REMARK   49  A    between atoms: _150  and  _152
REMARK   50  A    between atoms: _152  and  _153
REMARK   51  A    between atoms: _152  and  _155
REMARK   52  A    between atoms: _155  and  _156
REMARK   53  A    between atoms: _156  and  _157
REMARK   54  A    between atoms: _159  and  _161
REMARK   55  A    between atoms: _161  and  _162
REMARK   56  A    between atoms: _161  and  _164
REMARK   57  A    between atoms: _164  and  _165
REMARK   58  A    between atoms: _175  and  _177
REMARK   59  A    between atoms: _177  and  _178
REMARK   60  A    between atoms: _181  and  _183
REMARK   61  A    between atoms: _190  and  _193
REMARK   62  A    between atoms: _193  and  _194
REMARK   63  A    between atoms: _199  and  _202
REMARK   64  A    between atoms: _202  and  _203
REMARK   65  A    between atoms: _208  and  _209
REMARK   66  A    between atoms: _213  and  _215
REMARK   67  A    between atoms: _215  and  _216
REMARK   68  A    between atoms: _215  and  _218
REMARK   69  A    between atoms: _218  and  _219
REMARK   70  A    between atoms: _222  and  _224
REMARK   71  A    between atoms: _224  and  _225
REMARK   72  A    between atoms: _224  and  _227
REMARK   73  A    between atoms: _227  and  _228
REMARK   74  A    between atoms: _231  and  _233
REMARK   75  A    between atoms: _233  and  _234
REMARK   76  A    between atoms: _233  and  _236
REMARK   77  A    between atoms: _236  and  _237
REMARK                            x       y       z     vdW  Elec       q    Type
REMARK                         _______ _______ _______ _____ _____    ______ ____
ROOT
ATOM      1  O   HOH     1     -15.111  10.270  -6.721  0.00  0.00    +0.000 OA
ENDROOT
TORSDOF 0
REMARK  Name = ../refined-set-2016/4up5/4up5_pocket.pdb
REMARK  77 active torsions:
REMARK  status: ('A' for Active; 'I' for Inactive)
REMARK    1  A    between atoms: _1  and  _3
REMARK    2  A    between atoms: _21  and  _22
REMARK    3  A    between atoms: _26  and  _28
REMARK    4  A    between atoms: _28  and  _29
REMARK    5  A    between atoms: _28  and  _31
REMARK    6  A    between atoms: _31  and  _32
REMARK    7  A    between atoms: _32  and  _33
REMARK    8  A    between atoms: _33  and  _34
REMARK    9  A    between atoms: _43  and  _45
REMARK   10  A    between atoms: _45  and  _46
REMARK   11  A    between atoms: _45  and  _48
REMARK   12  A    between atoms: _48  and  _49
REMARK   13  A    between atoms: _52  and  _54
REMARK   14  A    between atoms: _54  and  _55
REMARK   15  A    between atoms: _54  and  _57
REMARK   16  A    between atoms: _57  and  _58
REMARK   17  A    between atoms: _58  and  ZN_243
REMARK   18  A    between atoms: _59  and  _61
REMARK   19  A    between atoms: _61  and  _62
REMARK   20  A    between atoms: _61  and  _64
REMARK   21  A    between atoms: _64  and  _65
REMARK   22  A    between atoms: _65  and  ZN_243
REMARK   23  A    between atoms: _66  and  _68
REMARK   24  A    between atoms: _68  and  _69
REMARK   25  A    between atoms: _68  and  _71
REMARK   26  A    between atoms: _71  and  _72
REMARK   27  A    between atoms: _72  and  _73
REMARK   28  A    between atoms: _73  and  _74
REMARK   29  A    between atoms: _74  and  _75
REMARK   30  A    between atoms: _79  and  _81
REMARK   31  A    between atoms: _81  and  _82
REMARK   32  A    between atoms: _81  and  _84
REMARK   33  A    between atoms: _84  and  _85
REMARK   34  A    between atoms: _91  and  _93
REMARK   35  A    between atoms: _104  and  _107
REMARK   36  A    between atoms: _107  and  _108
REMARK   37  A    between atoms: _108  and  _109
REMARK   38  A    between atoms: _109  and  _110
REMARK   39  A    between atoms: _121  and  _124
REMARK   40  A    between atoms: _124  and  _125
REMARK   41  A    between atoms: _125  and  _126
REMARK   42  A    between atoms: _131  and  _132
REMARK   43  A    between atoms: _136  and  _138
REMARK   44  A    between atoms: _138  and  _139
REMARK   45  A    between atoms: _138  and  _141
REMARK   46  A    between atoms: _141  and  _142
REMARK   47  A    between atoms: _145  and  _147
REMARK   48  A    between atoms: _147  and  _148
REMARK   49  A    between atoms: _150  and  _152
REMARK   50  A    between atoms: _152  and  _153
REMARK   51  A    between atoms: _152  and  _155
REMARK   52  A    between atoms: _155  and  _156
REMARK   53  A    between atoms: _156  and  _157
REMARK   54  A    between atoms: _159  and  _161
REMARK   55  A    between atoms: _161  and  _162
REMARK   56  A    between atoms: _161  and  _164
REMARK   57  A    between atoms: _164  and  _165
REMARK   58  A    between atoms: _175  and  _177
REMARK   59  A    between atoms: _177  and  _178
REMARK   60  A    between atoms: _181  and  _183
REMARK   61  A    between atoms: _190  and  _193
REMARK   62  A    between atoms: _193  and  _194
REMARK   63  A    between atoms: _199  and  _202
REMARK   64  A    between atoms: _202  and  _203
REMARK   65  A    between atoms: _208  and  _209
REMARK   66  A    between atoms: _213  and  _215
REMARK   67  A    between atoms: _215  and  _216
REMARK   68  A    between atoms: _215  and  _218
REMARK   69  A    between atoms: _218  and  _219
REMARK   70  A    between atoms: _222  and  _224
REMARK   71  A    between atoms: _224  and  _225
REMARK   72  A    between atoms: _224  and  _227
REMARK   73  A    between atoms: _227  and  _228
REMARK   74  A    between atoms: _231  and  _233
REMARK   75  A    between atoms: _233  and  _234
REMARK   76  A    between atoms: _233  and  _236
REMARK   77  A    between atoms: _236  and  _237
REMARK                            x       y       z     vdW  Elec       q    Type
REMARK                         _______ _______ _______ _____ _____    ______ ____
ROOT
ATOM      1  O   HOH     1     -15.072   7.932  -9.241  0.00  0.00    +0.000 OA
ENDROOT
TORSDOF 0
