REMARK  Name = ../refined-set-2016/1ugp/1ugp_pocket.pdb
REMARK  114 active torsions:
REMARK  status: ('A' for Active; 'I' for Inactive)
REMARK    1  A    between atoms: _1  and  _3
REMARK    2  A    between atoms: _3  and  _4
REMARK    3  A    between atoms: _3  and  _6
REMARK    4  A    between atoms: _6  and  _7
REMARK    5  A    between atoms: _10  and  _12
REMARK    6  A    between atoms: _12  and  _13
REMARK    7  A    between atoms: _12  and  _15
REMARK    8  A    between atoms: _15  and  _16
REMARK    9  A    between atoms: _16  and  _17
REMARK   10  A    between atoms: _22  and  _24
REMARK   11  A    between atoms: _24  and  _25
REMARK   12  A    between atoms: _24  and  _27
REMARK   13  A    between atoms: _27  and  _28
REMARK   14  A    between atoms: _28  and  CO_316
REMARK   15  A    between atoms: _29  and  _31
REMARK   16  A    between atoms: _31  and  _32
REMARK   17  A    between atoms: _31  and  _34
REMARK   18  A    between atoms: _34  and  _35
REMARK   19  A    between atoms: _38  and  _40
REMARK   20  A    between atoms: _49  and  _52
REMARK   21  A    between atoms: _52  and  _53
REMARK   22  A    between atoms: _57  and  _60
REMARK   23  A    between atoms: _59  and  _62
REMARK   24  A    between atoms: _64  and  _66
REMARK   25  A    between atoms: _66  and  _67
REMARK   26  A    between atoms: _66  and  _69
REMARK   27  A    between atoms: _69  and  _70
REMARK   28  A    between atoms: _75  and  _76
REMARK   29  A    between atoms: _78  and  _80
REMARK   30  A    between atoms: _80  and  _81
REMARK   31  A    between atoms: _80  and  _83
REMARK   32  A    between atoms: _83  and  _84
REMARK   33  A    between atoms: _94  and  _96
REMARK   34  A    between atoms: _96  and  _97
REMARK   35  A    between atoms: _96  and  _99
REMARK   36  A    between atoms: _99  and  _100
REMARK   37  A    between atoms: _104  and  _105
REMARK   38  A    between atoms: _110  and  _112
REMARK   39  A    between atoms: _112  and  _113
REMARK   40  A    between atoms: _112  and  _115
REMARK   41  A    between atoms: _115  and  _116
REMARK   42  A    between atoms: _122  and  _124
REMARK   43  A    between atoms: _124  and  _125
REMARK   44  A    between atoms: _124  and  _127
REMARK   45  A    between atoms: _127  and  _128
REMARK   46  A    between atoms: _128  and  _129
REMARK   47  A    between atoms: _129  and  _130
REMARK   48  A    between atoms: _130  and  _131
REMARK   49  A    between atoms: _135  and  _137
REMARK   50  A    between atoms: _137  and  _138
REMARK   51  A    between atoms: _137  and  _140
REMARK   52  A    between atoms: _140  and  _141
REMARK   53  A    between atoms: _143  and  _145
REMARK   54  A    between atoms: _145  and  _146
REMARK   55  A    between atoms: _145  and  _148
REMARK   56  A    between atoms: _148  and  _149
REMARK   57  A    between atoms: _149  and  _150
REMARK   58  A    between atoms: _153  and  _155
REMARK   59  A    between atoms: _155  and  _156
REMARK   60  A    between atoms: _155  and  _158
REMARK   61  A    between atoms: _158  and  _159
REMARK   62  A    between atoms: _159  and  _160
REMARK   63  A    between atoms: _160  and  _161
REMARK   64  A    between atoms: _170  and  _172
REMARK   65  A    between atoms: _172  and  _173
REMARK   66  A    between atoms: _172  and  _175
REMARK   67  A    between atoms: _175  and  _176
REMARK   68  A    between atoms: _182  and  _184
REMARK   69  A    between atoms: _184  and  _185
REMARK   70  A    between atoms: _184  and  _187
REMARK   71  A    between atoms: _187  and  _188
REMARK   72  A    between atoms: _194  and  _196
REMARK   73  A    between atoms: _196  and  _197
REMARK   74  A    between atoms: _196  and  _199
REMARK   75  A    between atoms: _199  and  _200
REMARK   76  A    between atoms: _203  and  _205
REMARK   77  A    between atoms: _205  and  _206
REMARK   78  A    between atoms: _205  and  _208
REMARK   79  A    between atoms: _208  and  _209
REMARK   80  A    between atoms: _215  and  _217
REMARK   81  A    between atoms: _217  and  _218
REMARK   82  A    between atoms: _217  and  _220
REMARK   83  A    between atoms: _220  and  _221
REMARK   84  A    between atoms: _221  and  _222
REMARK   85  A    between atoms: _222  and  _223
REMARK   86  A    between atoms: _232  and  _234
REMARK   87  A    between atoms: _234  and  _235
REMARK   88  A    between atoms: _234  and  _237
REMARK   89  A    between atoms: _237  and  _238
REMARK   90  A    between atoms: _241  and  _243
REMARK   91  A    between atoms: _243  and  _244
REMARK   92  A    between atoms: _243  and  _246
REMARK   93  A    between atoms: _246  and  _247
REMARK   94  A    between atoms: _252  and  _253
REMARK   95  A    between atoms: _255  and  _257
REMARK   96  A    between atoms: _257  and  _258
REMARK   97  A    between atoms: _257  and  _260
REMARK   98  A    between atoms: _260  and  _261
REMARK   99  A    between atoms: _266  and  _267
REMARK  100  A    between atoms: _269  and  _271
REMARK  101  A    between atoms: _271  and  _272
REMARK  102  A    between atoms: _271  and  _274
REMARK  103  A    between atoms: _274  and  _275
REMARK  104  A    between atoms: _285  and  _287
REMARK  105  A    between atoms: _287  and  _288
REMARK  106  A    between atoms: _287  and  _290
REMARK  107  A    between atoms: _290  and  _291
REMARK  108  A    between atoms: _296  and  _297
REMARK  109  A    between atoms: _299  and  _301
REMARK  110  A    between atoms: _301  and  _302
REMARK  111  A    between atoms: _301  and  _304
REMARK  112  A    between atoms: _304  and  _305
REMARK  113  A    between atoms: _305  and  _306
REMARK  114  A    between atoms: _306  and  _307
REMARK                            x       y       z     vdW  Elec       q    Type
REMARK                         _______ _______ _______ _____ _____    ______ ____
ROOT
ATOM      1  C   LEU A   1       4.469  39.280  24.467  0.00  0.00    +0.238 C 
ATOM      2  N   GLN A   2       5.676  39.561  23.980  0.00  0.00    -0.298 N 
ATOM      3  H   GLN A   2       6.492  39.486  24.620  0.00  0.00    +0.150 HD
ATOM      4  O   LEU A   1       3.437  39.304  23.794  0.00  0.00    -0.274 OA
ENDROOT
BRANCH   1   5
ATOM      5  CA  LEU A   1       4.442  38.884  25.940  0.00  0.00    +0.145 C 
BRANCH   5   6
ATOM      6  N   LEU A   1       3.600  39.722  26.788  0.00  0.00    -0.238 NA
ATOM      7  H   LEU A   1       2.908  39.252  27.406  0.00  0.00    +0.142 HD
ENDBRANCH   5   6
BRANCH   5   8
ATOM      8  CB  LEU A   1       4.023  37.417  26.090  0.00  0.00    +0.026 C 
BRANCH   8   9
ATOM      9  CG  LEU A   1       4.958  36.344  25.529  0.00  0.00    +0.002 C 
ATOM     10  CD2 LEU A   1       6.332  36.447  26.183  0.00  0.00    +0.000 C 
ATOM     11  CD1 LEU A   1       4.345  34.963  25.774  0.00  0.00    +0.000 C 
ENDBRANCH   8   9
ENDBRANCH   5   8
ENDBRANCH   1   5
BRANCH   2  12
ATOM     12  CA  GLN A   2       5.921  39.969  22.599  0.00  0.00    +0.137 C 
BRANCH  12  13
ATOM     13  C   GLN A   2       5.301  41.305  22.206  0.00  0.00    +0.227 C 
ATOM     14  O   GLN A   2       5.022  41.567  21.034  0.00  0.00    -0.286 OA
ENDBRANCH  12  13
BRANCH  12  15
ATOM     15  CB  GLN A   2       5.555  38.850  21.620  0.00  0.00    +0.037 C 
BRANCH  15  16
ATOM     16  CG  GLN A   2       6.665  37.817  21.481  0.00  0.00    +0.087 C 
BRANCH  16  17
ATOM     17  CD  GLN A   2       7.974  38.440  21.011  0.00  0.00    +0.219 C 
ATOM     18  NE2 GLN A   2       8.923  38.600  21.931  0.00  0.00    -0.329 N 
ATOM     19 HE21 GLN A   2       8.757  38.287  22.909  0.00  0.00    +0.145 HD
ATOM     20 HE22 GLN A   2       9.830  39.038  21.672  0.00  0.00    +0.145 HD
ATOM     21  OE1 GLN A   2       8.121  38.793  19.842  0.00  0.00    -0.275 OA
ENDBRANCH  16  17
ENDBRANCH  15  16
ENDBRANCH  12  15
ENDBRANCH   2  12
TORSDOF 9
REMARK  Name = ../refined-set-2016/1ugp/1ugp_pocket.pdb
REMARK  114 active torsions:
REMARK  status: ('A' for Active; 'I' for Inactive)
REMARK    1  A    between atoms: _1  and  _3
REMARK    2  A    between atoms: _3  and  _4
REMARK    3  A    between atoms: _3  and  _6
REMARK    4  A    between atoms: _6  and  _7
REMARK    5  A    between atoms: _10  and  _12
REMARK    6  A    between atoms: _12  and  _13
REMARK    7  A    between atoms: _12  and  _15
REMARK    8  A    between atoms: _15  and  _16
REMARK    9  A    between atoms: _16  and  _17
REMARK   10  A    between atoms: _22  and  _24
REMARK   11  A    between atoms: _24  and  _25
REMARK   12  A    between atoms: _24  and  _27
REMARK   13  A    between atoms: _27  and  _28
REMARK   14  A    between atoms: _28  and  CO_316
REMARK   15  A    between atoms: _29  and  _31
REMARK   16  A    between atoms: _31  and  _32
REMARK   17  A    between atoms: _31  and  _34
REMARK   18  A    between atoms: _34  and  _35
REMARK   19  A    between atoms: _38  and  _40
REMARK   20  A    between atoms: _49  and  _52
REMARK   21  A    between atoms: _52  and  _53
REMARK   22  A    between atoms: _57  and  _60
REMARK   23  A    between atoms: _59  and  _62
REMARK   24  A    between atoms: _64  and  _66
REMARK   25  A    between atoms: _66  and  _67
REMARK   26  A    between atoms: _66  and  _69
REMARK   27  A    between atoms: _69  and  _70
REMARK   28  A    between atoms: _75  and  _76
REMARK   29  A    between atoms: _78  and  _80
REMARK   30  A    between atoms: _80  and  _81
REMARK   31  A    between atoms: _80  and  _83
REMARK   32  A    between atoms: _83  and  _84
REMARK   33  A    between atoms: _94  and  _96
REMARK   34  A    between atoms: _96  and  _97
REMARK   35  A    between atoms: _96  and  _99
REMARK   36  A    between atoms: _99  and  _100
REMARK   37  A    between atoms: _104  and  _105
REMARK   38  A    between atoms: _110  and  _112
REMARK   39  A    between atoms: _112  and  _113
REMARK   40  A    between atoms: _112  and  _115
REMARK   41  A    between atoms: _115  and  _116
REMARK   42  A    between atoms: _122  and  _124
REMARK   43  A    between atoms: _124  and  _125
REMARK   44  A    between atoms: _124  and  _127
REMARK   45  A    between atoms: _127  and  _128
REMARK   46  A    between atoms: _128  and  _129
REMARK   47  A    between atoms: _129  and  _130
REMARK   48  A    between atoms: _130  and  _131
REMARK   49  A    between atoms: _135  and  _137
REMARK   50  A    between atoms: _137  and  _138
REMARK   51  A    between atoms: _137  and  _140
REMARK   52  A    between atoms: _140  and  _141
REMARK   53  A    between atoms: _143  and  _145
REMARK   54  A    between atoms: _145  and  _146
REMARK   55  A    between atoms: _145  and  _148
REMARK   56  A    between atoms: _148  and  _149
REMARK   57  A    between atoms: _149  and  _150
REMARK   58  A    between atoms: _153  and  _155
REMARK   59  A    between atoms: _155  and  _156
REMARK   60  A    between atoms: _155  and  _158
REMARK   61  A    between atoms: _158  and  _159
REMARK   62  A    between atoms: _159  and  _160
REMARK   63  A    between atoms: _160  and  _161
REMARK   64  A    between atoms: _170  and  _172
REMARK   65  A    between atoms: _172  and  _173
REMARK   66  A    between atoms: _172  and  _175
REMARK   67  A    between atoms: _175  and  _176
REMARK   68  A    between atoms: _182  and  _184
REMARK   69  A    between atoms: _184  and  _185
REMARK   70  A    between atoms: _184  and  _187
REMARK   71  A    between atoms: _187  and  _188
REMARK   72  A    between atoms: _194  and  _196
REMARK   73  A    between atoms: _196  and  _197
REMARK   74  A    between atoms: _196  and  _199
REMARK   75  A    between atoms: _199  and  _200
REMARK   76  A    between atoms: _203  and  _205
REMARK   77  A    between atoms: _205  and  _206
REMARK   78  A    between atoms: _205  and  _208
REMARK   79  A    between atoms: _208  and  _209
REMARK   80  A    between atoms: _215  and  _217
REMARK   81  A    between atoms: _217  and  _218
REMARK   82  A    between atoms: _217  and  _220
REMARK   83  A    between atoms: _220  and  _221
REMARK   84  A    between atoms: _221  and  _222
REMARK   85  A    between atoms: _222  and  _223
REMARK   86  A    between atoms: _232  and  _234
REMARK   87  A    between atoms: _234  and  _235
REMARK   88  A    between atoms: _234  and  _237
REMARK   89  A    between atoms: _237  and  _238
REMARK   90  A    between atoms: _241  and  _243
REMARK   91  A    between atoms: _243  and  _244
REMARK   92  A    between atoms: _243  and  _246
REMARK   93  A    between atoms: _246  and  _247
REMARK   94  A    between atoms: _252  and  _253
REMARK   95  A    between atoms: _255  and  _257
REMARK   96  A    between atoms: _257  and  _258
REMARK   97  A    between atoms: _257  and  _260
REMARK   98  A    between atoms: _260  and  _261
REMARK   99  A    between atoms: _266  and  _267
REMARK  100  A    between atoms: _269  and  _271
REMARK  101  A    between atoms: _271  and  _272
REMARK  102  A    between atoms: _271  and  _274
REMARK  103  A    between atoms: _274  and  _275
REMARK  104  A    between atoms: _285  and  _287
REMARK  105  A    between atoms: _287  and  _288
REMARK  106  A    between atoms: _287  and  _290
REMARK  107  A    between atoms: _290  and  _291
REMARK  108  A    between atoms: _296  and  _297
REMARK  109  A    between atoms: _299  and  _301
REMARK  110  A    between atoms: _301  and  _302
REMARK  111  A    between atoms: _301  and  _304
REMARK  112  A    between atoms: _304  and  _305
REMARK  113  A    between atoms: _305  and  _306
REMARK  114  A    between atoms: _306  and  _307
REMARK                            x       y       z     vdW  Elec       q    Type
REMARK                         _______ _______ _______ _____ _____    ______ ____
ROOT
ATOM      1 CO   UNK A   4       9.910  37.344  13.693  0.00  0.00    +0.000 Co
ATOM      2  S   UNK A   4      10.486  38.760  15.367  0.00  0.00    +0.000 S 
ATOM      3  C   UNK A   4       9.076  39.880  15.121  0.00  0.00    +0.000 C 
ATOM      4  C   UNK A   4       7.858  38.983  15.020  0.00  0.00    +0.000 C 
ATOM      5  N   UNK A   4       8.090  37.997  13.977  0.00  0.00    +0.000 N 
ATOM      6  C   SER A   3       7.157  37.212  13.455  0.00  0.00    +0.000 C 
ATOM      7  O   SER A   3       5.964  37.265  13.766  0.00  0.00    +0.000 OA
ATOM      8  CA  SER A   3       7.639  36.233  12.387  0.00  0.00    +0.000 C 
ATOM      9  N   SER A   3       9.099  36.092  12.287  0.00  0.00    +0.000 N 
ATOM     10  H   SER A   3       9.709  36.451  13.049  0.00  0.00    +0.000 HD
ATOM     11  C   UNK A   2       9.643  35.504  11.220  0.00  0.00    +0.000 C 
ATOM     12  O   UNK A   2       8.967  35.125  10.270  0.00  0.00    +0.000 OA
ATOM     13  C   UNK A   2      11.167  35.307  11.196  0.00  0.00    +0.000 C 
ATOM     14  C   UNK A   2      11.648  34.976  12.610  0.00  0.00    +0.000 C 
ATOM     15  H   UNK A   4       9.059  37.900  13.613  0.00  0.00    +0.000 HD
ATOM     16  S   UNK A   2      11.846  36.335  13.778  0.00  0.00    +0.000 S 
ATOM     17  O   UNK A   2      12.920  37.129  13.282  0.00  0.00    +0.000 OA
ATOM     18  O   UNK A   2      11.955  35.627  15.103  0.00  0.00    +0.000 OA
ENDROOT
BRANCH  13  19
ATOM     19  N   UNK A   2      11.916  36.423  10.616  0.00  0.00    +0.000 N 
ATOM     20  C   UNK A   1      13.206  36.270  10.302  0.00  0.00    +0.000 C 
ATOM     21  O   UNK A   1      13.810  35.208  10.483  0.00  0.00    +0.000 OA
ATOM     22  H   UNK A   2      11.444  37.335  10.448  0.00  0.00    +0.000 HD
BRANCH  20  23
ATOM     23  C   UNK A   1      13.938  37.460   9.677  0.00  0.00    +0.000 C 
BRANCH  23  24
ATOM     24  N   UNK A   1      13.097  38.486   9.084  0.00  0.00    +0.000 NA
ATOM     25  H   UNK A   1      12.880  39.343   9.632  0.00  0.00    +0.000 HD
ENDBRANCH  23  24
BRANCH  23  26
ATOM     26  C   UNK A   1      14.915  38.098  10.670  0.00  0.00    +0.000 C 
BRANCH  26  27
ATOM     27  C   UNK A   1      15.899  39.091  10.031  0.00  0.00    +0.000 C 
ATOM     28  C   UNK A   1      16.637  39.865  11.106  0.00  0.00    +0.000 C 
ATOM     29  C   UNK A   1      16.885  38.372   9.114  0.00  0.00    +0.000 C 
ENDBRANCH  26  27
ENDBRANCH  23  26
ENDBRANCH  20  23
ENDBRANCH  13  19
BRANCH   4  30
ATOM     30  C   UNK A   4       6.577  39.778  14.765  0.00  0.00    +0.000 C 
ATOM     31  N   TYR A   5       5.718  39.817  15.782  0.00  0.00    +0.000 N 
ATOM     32  H   TYR A   5       6.002  39.396  16.690  0.00  0.00    +0.000 HD
ATOM     33  O   UNK A   4       6.395  40.365  13.691  0.00  0.00    +0.000 OA
BRANCH  31  34
ATOM     34  CA  TYR A   5       4.395  40.426  15.677  0.00  0.00    +0.000 C 
BRANCH  34  35
ATOM     35  C   TYR A   5       3.956  40.863  17.080  0.00  0.00    +0.000 C 
ATOM     36  O   TYR A   5       4.293  40.211  18.068  0.00  0.00    +0.000 OA
ENDBRANCH  34  35
BRANCH  34  37
ATOM     37  CB  TYR A   5       3.483  39.315  15.150  0.00  0.00    +0.000 C 
BRANCH  37  38
ATOM     38  CG  TYR A   5       2.095  39.666  14.678  0.00  0.00    +0.000 A 
ATOM     39  CD2 TYR A   5       0.983  39.298  15.433  0.00  0.00    +0.000 A 
ATOM     40  CE2 TYR A   5      -0.303  39.430  14.927  0.00  0.00    +0.000 A 
ATOM     41  CZ  TYR A   5      -0.488  39.940  13.660  0.00  0.00    +0.000 A 
ATOM     42  CE1 TYR A   5       0.595  40.334  12.892  0.00  0.00    +0.000 A 
ATOM     43  CD1 TYR A   5       1.880  40.199  13.405  0.00  0.00    +0.000 A 
BRANCH  41  44
ATOM     44  OH  TYR A   5      -1.760  40.007  13.156  0.00  0.00    +0.000 OA
ATOM     45  HH  TYR A   5      -2.148  39.097  13.119  0.00  0.00    +0.000 HD
ENDBRANCH  41  44
ENDBRANCH  37  38
ENDBRANCH  34  37
ENDBRANCH  31  34
ENDBRANCH   4  30
BRANCH   2  46
ATOM     46  O   UNK A   4      10.230  37.898  16.576  0.00  0.00    +0.000 OA
ATOM     47  H   UNK A   4       9.406  37.369  16.434  0.00  0.00    +0.000 HD
ENDBRANCH   2  46
BRANCH   8  48
ATOM     48  CB  SER A   3       7.040  34.857  12.678  0.00  0.00    +0.000 C 
BRANCH  48  49
ATOM     49  OG  SER A   3       7.745  34.232  13.744  0.00  0.00    +0.000 OA
ATOM     50  H   SER A   3       7.349  33.343  13.923  0.00  0.00    +0.000 HD
ENDBRANCH  48  49
ENDBRANCH   8  48
BRANCH   1  51
ATOM     51  S   UNK A   1      10.544  38.961  12.300  0.00  0.00    +0.000 S 
BRANCH  51  52
ATOM     52  C   UNK A   1       9.083  39.605  11.419  0.00  0.00    +0.000 C 
BRANCH  52  53
ATOM     53  C   UNK A   1       9.494  40.486  10.240  0.00  0.00    +0.000 C 
BRANCH  53  54
ATOM     54  C   UNK A   1      10.163  39.639   9.168  0.00  0.00    +0.000 C 
ATOM     55  O   UNK A   1       9.794  38.475   8.960  0.00  0.00    +0.000 OA
ENDBRANCH  53  54
BRANCH  53  56
ATOM     56  N   UNK A   1       8.360  41.043   9.527  0.00  0.00    +0.000 NA
ATOM     57  H   UNK A   1       7.710  40.400   9.032  0.00  0.00    +0.000 HD
ENDBRANCH  53  56
ENDBRANCH  52  53
ENDBRANCH  51  52
ENDBRANCH   1  51
TORSDOF 19
REMARK  Name = ../refined-set-2016/1ugp/1ugp_pocket.pdb
REMARK  114 active torsions:
REMARK  status: ('A' for Active; 'I' for Inactive)
REMARK    1  A    between atoms: _1  and  _3
REMARK    2  A    between atoms: _3  and  _4
REMARK    3  A    between atoms: _3  and  _6
REMARK    4  A    between atoms: _6  and  _7
REMARK    5  A    between atoms: _10  and  _12
REMARK    6  A    between atoms: _12  and  _13
REMARK    7  A    between atoms: _12  and  _15
REMARK    8  A    between atoms: _15  and  _16
REMARK    9  A    between atoms: _16  and  _17
REMARK   10  A    between atoms: _22  and  _24
REMARK   11  A    between atoms: _24  and  _25
REMARK   12  A    between atoms: _24  and  _27
REMARK   13  A    between atoms: _27  and  _28
REMARK   14  A    between atoms: _28  and  CO_316
REMARK   15  A    between atoms: _29  and  _31
REMARK   16  A    between atoms: _31  and  _32
REMARK   17  A    between atoms: _31  and  _34
REMARK   18  A    between atoms: _34  and  _35
REMARK   19  A    between atoms: _38  and  _40
REMARK   20  A    between atoms: _49  and  _52
REMARK   21  A    between atoms: _52  and  _53
REMARK   22  A    between atoms: _57  and  _60
REMARK   23  A    between atoms: _59  and  _62
REMARK   24  A    between atoms: _64  and  _66
REMARK   25  A    between atoms: _66  and  _67
REMARK   26  A    between atoms: _66  and  _69
REMARK   27  A    between atoms: _69  and  _70
REMARK   28  A    between atoms: _75  and  _76
REMARK   29  A    between atoms: _78  and  _80
REMARK   30  A    between atoms: _80  and  _81
REMARK   31  A    between atoms: _80  and  _83
REMARK   32  A    between atoms: _83  and  _84
REMARK   33  A    between atoms: _94  and  _96
REMARK   34  A    between atoms: _96  and  _97
REMARK   35  A    between atoms: _96  and  _99
REMARK   36  A    between atoms: _99  and  _100
REMARK   37  A    between atoms: _104  and  _105
REMARK   38  A    between atoms: _110  and  _112
REMARK   39  A    between atoms: _112  and  _113
REMARK   40  A    between atoms: _112  and  _115
REMARK   41  A    between atoms: _115  and  _116
REMARK   42  A    between atoms: _122  and  _124
REMARK   43  A    between atoms: _124  and  _125
REMARK   44  A    between atoms: _124  and  _127
REMARK   45  A    between atoms: _127  and  _128
REMARK   46  A    between atoms: _128  and  _129
REMARK   47  A    between atoms: _129  and  _130
REMARK   48  A    between atoms: _130  and  _131
REMARK   49  A    between atoms: _135  and  _137
REMARK   50  A    between atoms: _137  and  _138
REMARK   51  A    between atoms: _137  and  _140
REMARK   52  A    between atoms: _140  and  _141
REMARK   53  A    between atoms: _143  and  _145
REMARK   54  A    between atoms: _145  and  _146
REMARK   55  A    between atoms: _145  and  _148
REMARK   56  A    between atoms: _148  and  _149
REMARK   57  A    between atoms: _149  and  _150
REMARK   58  A    between atoms: _153  and  _155
REMARK   59  A    between atoms: _155  and  _156
REMARK   60  A    between atoms: _155  and  _158
REMARK   61  A    between atoms: _158  and  _159
REMARK   62  A    between atoms: _159  and  _160
REMARK   63  A    between atoms: _160  and  _161
REMARK   64  A    between atoms: _170  and  _172
REMARK   65  A    between atoms: _172  and  _173
REMARK   66  A    between atoms: _172  and  _175
REMARK   67  A    between atoms: _175  and  _176
REMARK   68  A    between atoms: _182  and  _184
REMARK   69  A    between atoms: _184  and  _185
REMARK   70  A    between atoms: _184  and  _187
REMARK   71  A    between atoms: _187  and  _188
REMARK   72  A    between atoms: _194  and  _196
REMARK   73  A    between atoms: _196  and  _197
REMARK   74  A    between atoms: _196  and  _199
REMARK   75  A    between atoms: _199  and  _200
REMARK   76  A    between atoms: _203  and  _205
REMARK   77  A    between atoms: _205  and  _206
REMARK   78  A    between atoms: _205  and  _208
REMARK   79  A    between atoms: _208  and  _209
REMARK   80  A    between atoms: _215  and  _217
REMARK   81  A    between atoms: _217  and  _218
REMARK   82  A    between atoms: _217  and  _220
REMARK   83  A    between atoms: _220  and  _221
REMARK   84  A    between atoms: _221  and  _222
REMARK   85  A    between atoms: _222  and  _223
REMARK   86  A    between atoms: _232  and  _234
REMARK   87  A    between atoms: _234  and  _235
REMARK   88  A    between atoms: _234  and  _237
REMARK   89  A    between atoms: _237  and  _238
REMARK   90  A    between atoms: _241  and  _243
REMARK   91  A    between atoms: _243  and  _244
REMARK   92  A    between atoms: _243  and  _246
REMARK   93  A    between atoms: _246  and  _247
REMARK   94  A    between atoms: _252  and  _253
REMARK   95  A    between atoms: _255  and  _257
REMARK   96  A    between atoms: _257  and  _258
REMARK   97  A    between atoms: _257  and  _260
REMARK   98  A    between atoms: _260  and  _261
REMARK   99  A    between atoms: _266  and  _267
REMARK  100  A    between atoms: _269  and  _271
REMARK  101  A    between atoms: _271  and  _272
REMARK  102  A    between atoms: _271  and  _274
REMARK  103  A    between atoms: _274  and  _275
REMARK  104  A    between atoms: _285  and  _287
REMARK  105  A    between atoms: _287  and  _288
REMARK  106  A    between atoms: _287  and  _290
REMARK  107  A    between atoms: _290  and  _291
REMARK  108  A    between atoms: _296  and  _297
REMARK  109  A    between atoms: _299  and  _301
REMARK  110  A    between atoms: _301  and  _302
REMARK  111  A    between atoms: _301  and  _304
REMARK  112  A    between atoms: _304  and  _305
REMARK  113  A    between atoms: _305  and  _306
REMARK  114  A    between atoms: _306  and  _307
REMARK                            x       y       z     vdW  Elec       q    Type
REMARK                         _______ _______ _______ _____ _____    ______ ____
ROOT
ATOM      1  CG  TRP A   1       2.371  37.497  20.218  0.00  0.00    -0.002 A 
ATOM      2  CD2 TRP A   1       3.070  36.337  20.687  0.00  0.00    +0.013 A 
ATOM      3  CE3 TRP A   1       3.245  35.753  21.951  0.00  0.00    +0.001 A 
ATOM      4  CZ3 TRP A   1       4.010  34.593  22.052  0.00  0.00    +0.000 A 
ATOM      5  CH2 TRP A   1       4.601  34.012  20.913  0.00  0.00    +0.001 A 
ATOM      6  CZ2 TRP A   1       4.444  34.564  19.665  0.00  0.00    +0.017 A 
ATOM      7  CE2 TRP A   1       3.674  35.728  19.563  0.00  0.00    +0.056 A 
ATOM      8  NE1 TRP A   1       3.352  36.482  18.465  0.00  0.00    -0.352 N 
ATOM      9  HE1 TRP A   1       3.652  36.287  17.488  0.00  0.00    +0.166 HD
ATOM     10  CD1 TRP A   1       2.567  37.541  18.865  0.00  0.00    +0.068 A 
ENDROOT
BRANCH   1  11
ATOM     11  CB  TRP A   1       1.603  38.481  21.067  0.00  0.00    +0.053 C 
BRANCH  11  12
ATOM     12  CA  TRP A   1       0.922  39.635  20.316  0.00  0.00    +0.137 C 
BRANCH  12  13
ATOM     13  N   TRP A   1       1.913  40.524  19.713  0.00  0.00    -0.239 NA
ATOM     14  H   TRP A   1       2.920  40.271  19.773  0.00  0.00    +0.142 HD
ENDBRANCH  12  13
BRANCH  12  15
ATOM     15  C   TRP A   1      -0.115  40.279  21.245  0.00  0.00    +0.224 C 
ATOM     16  O   TRP A   1      -1.297  39.975  21.142  0.00  0.00    -0.287 OA
ENDBRANCH  12  15
ENDBRANCH  11  12
ENDBRANCH   1  11
TORSDOF 4
REMARK  Name = ../refined-set-2016/1ugp/1ugp_pocket.pdb
REMARK  114 active torsions:
REMARK  status: ('A' for Active; 'I' for Inactive)
REMARK    1  A    between atoms: _1  and  _3
REMARK    2  A    between atoms: _3  and  _4
REMARK    3  A    between atoms: _3  and  _6
REMARK    4  A    between atoms: _6  and  _7
REMARK    5  A    between atoms: _10  and  _12
REMARK    6  A    between atoms: _12  and  _13
REMARK    7  A    between atoms: _12  and  _15
REMARK    8  A    between atoms: _15  and  _16
REMARK    9  A    between atoms: _16  and  _17
REMARK   10  A    between atoms: _22  and  _24
REMARK   11  A    between atoms: _24  and  _25
REMARK   12  A    between atoms: _24  and  _27
REMARK   13  A    between atoms: _27  and  _28
REMARK   14  A    between atoms: _28  and  CO_316
REMARK   15  A    between atoms: _29  and  _31
REMARK   16  A    between atoms: _31  and  _32
REMARK   17  A    between atoms: _31  and  _34
REMARK   18  A    between atoms: _34  and  _35
REMARK   19  A    between atoms: _38  and  _40
REMARK   20  A    between atoms: _49  and  _52
REMARK   21  A    between atoms: _52  and  _53
REMARK   22  A    between atoms: _57  and  _60
REMARK   23  A    between atoms: _59  and  _62
REMARK   24  A    between atoms: _64  and  _66
REMARK   25  A    between atoms: _66  and  _67
REMARK   26  A    between atoms: _66  and  _69
REMARK   27  A    between atoms: _69  and  _70
REMARK   28  A    between atoms: _75  and  _76
REMARK   29  A    between atoms: _78  and  _80
REMARK   30  A    between atoms: _80  and  _81
REMARK   31  A    between atoms: _80  and  _83
REMARK   32  A    between atoms: _83  and  _84
REMARK   33  A    between atoms: _94  and  _96
REMARK   34  A    between atoms: _96  and  _97
REMARK   35  A    between atoms: _96  and  _99
REMARK   36  A    between atoms: _99  and  _100
REMARK   37  A    between atoms: _104  and  _105
REMARK   38  A    between atoms: _110  and  _112
REMARK   39  A    between atoms: _112  and  _113
REMARK   40  A    between atoms: _112  and  _115
REMARK   41  A    between atoms: _115  and  _116
REMARK   42  A    between atoms: _122  and  _124
REMARK   43  A    between atoms: _124  and  _125
REMARK   44  A    between atoms: _124  and  _127
REMARK   45  A    between atoms: _127  and  _128
REMARK   46  A    between atoms: _128  and  _129
REMARK   47  A    between atoms: _129  and  _130
REMARK   48  A    between atoms: _130  and  _131
REMARK   49  A    between atoms: _135  and  _137
REMARK   50  A    between atoms: _137  and  _138
REMARK   51  A    between atoms: _137  and  _140
REMARK   52  A    between atoms: _140  and  _141
REMARK   53  A    between atoms: _143  and  _145
REMARK   54  A    between atoms: _145  and  _146
REMARK   55  A    between atoms: _145  and  _148
REMARK   56  A    between atoms: _148  and  _149
REMARK   57  A    between atoms: _149  and  _150
REMARK   58  A    between atoms: _153  and  _155
REMARK   59  A    between atoms: _155  and  _156
REMARK   60  A    between atoms: _155  and  _158
REMARK   61  A    between atoms: _158  and  _159
REMARK   62  A    between atoms: _159  and  _160
REMARK   63  A    between atoms: _160  and  _161
REMARK   64  A    between atoms: _170  and  _172
REMARK   65  A    between atoms: _172  and  _173
REMARK   66  A    between atoms: _172  and  _175
REMARK   67  A    between atoms: _175  and  _176
REMARK   68  A    between atoms: _182  and  _184
REMARK   69  A    between atoms: _184  and  _185
REMARK   70  A    between atoms: _184  and  _187
REMARK   71  A    between atoms: _187  and  _188
REMARK   72  A    between atoms: _194  and  _196
REMARK   73  A    between atoms: _196  and  _197
REMARK   74  A    between atoms: _196  and  _199
REMARK   75  A    between atoms: _199  and  _200
REMARK   76  A    between atoms: _203  and  _205
REMARK   77  A    between atoms: _205  and  _206
REMARK   78  A    between atoms: _205  and  _208
REMARK   79  A    between atoms: _208  and  _209
REMARK   80  A    between atoms: _215  and  _217
REMARK   81  A    between atoms: _217  and  _218
REMARK   82  A    between atoms: _217  and  _220
REMARK   83  A    between atoms: _220  and  _221
REMARK   84  A    between atoms: _221  and  _222
REMARK   85  A    between atoms: _222  and  _223
REMARK   86  A    between atoms: _232  and  _234
REMARK   87  A    between atoms: _234  and  _235
REMARK   88  A    between atoms: _234  and  _237
REMARK   89  A    between atoms: _237  and  _238
REMARK   90  A    between atoms: _241  and  _243
REMARK   91  A    between atoms: _243  and  _244
REMARK   92  A    between atoms: _243  and  _246
REMARK   93  A    between atoms: _246  and  _247
REMARK   94  A    between atoms: _252  and  _253
REMARK   95  A    between atoms: _255  and  _257
REMARK   96  A    between atoms: _257  and  _258
REMARK   97  A    between atoms: _257  and  _260
REMARK   98  A    between atoms: _260  and  _261
REMARK   99  A    between atoms: _266  and  _267
REMARK  100  A    between atoms: _269  and  _271
REMARK  101  A    between atoms: _271  and  _272
REMARK  102  A    between atoms: _271  and  _274
REMARK  103  A    between atoms: _274  and  _275
REMARK  104  A    between atoms: _285  and  _287
REMARK  105  A    between atoms: _287  and  _288
REMARK  106  A    between atoms: _287  and  _290
REMARK  107  A    between atoms: _290  and  _291
REMARK  108  A    between atoms: _296  and  _297
REMARK  109  A    between atoms: _299  and  _301
REMARK  110  A    between atoms: _301  and  _302
REMARK  111  A    between atoms: _301  and  _304
REMARK  112  A    between atoms: _304  and  _305
REMARK  113  A    between atoms: _305  and  _306
REMARK  114  A    between atoms: _306  and  _307
REMARK                            x       y       z     vdW  Elec       q    Type
REMARK                         _______ _______ _______ _____ _____    ______ ____
ROOT
ATOM      1  C   LEU A   1      -0.993  35.796  15.698  0.00  0.00    +0.241 C 
ATOM      2  O   LEU A   1      -2.128  35.944  15.247  0.00  0.00    -0.273 OA
ATOM      3  N   PRO A   2       0.100  35.966  14.936  0.00  0.00    -0.273 N 
ATOM      4  CD  PRO A   2       1.512  35.857  15.349  0.00  0.00    +0.094 C 
ATOM      5  CG  PRO A   2       2.227  35.703  14.021  0.00  0.00    +0.024 C 
ATOM      6  CB  PRO A   2       1.447  36.616  13.135  0.00  0.00    +0.030 C 
ATOM      7  CA  PRO A   2      -0.004  36.322  13.519  0.00  0.00    +0.140 C 
ENDROOT
BRANCH   7   8
ATOM      8  C   PRO A   2      -0.592  35.255  12.615  0.00  0.00    +0.227 C 
ATOM      9  O   PRO A   2      -0.471  34.060  12.884  0.00  0.00    -0.286 OA
ENDBRANCH   7   8
BRANCH   1  10
ATOM     10  CA  LEU A   1      -0.775  35.435  17.168  0.00  0.00    +0.145 C 
BRANCH  10  11
ATOM     11  N   LEU A   1      -1.783  36.094  17.996  0.00  0.00    -0.238 NA
ATOM     12  H   LEU A   1      -2.550  35.532  18.417  0.00  0.00    +0.142 HD
ENDBRANCH  10  11
BRANCH  10  13
ATOM     13  CB  LEU A   1      -0.809  33.919  17.386  0.00  0.00    +0.026 C 
BRANCH  13  14
ATOM     14  CG  LEU A   1      -0.639  33.495  18.849  0.00  0.00    +0.002 C 
ATOM     15  CD2 LEU A   1       0.677  34.008  19.397  0.00  0.00    +0.000 C 
ATOM     16  CD1 LEU A   1      -0.717  31.983  18.981  0.00  0.00    +0.000 C 
ENDBRANCH  13  14
ENDBRANCH  10  13
ENDBRANCH   1  10
TORSDOF 5
REMARK  Name = ../refined-set-2016/1ugp/1ugp_pocket.pdb
REMARK  114 active torsions:
REMARK  status: ('A' for Active; 'I' for Inactive)
REMARK    1  A    between atoms: _1  and  _3
REMARK    2  A    between atoms: _3  and  _4
REMARK    3  A    between atoms: _3  and  _6
REMARK    4  A    between atoms: _6  and  _7
REMARK    5  A    between atoms: _10  and  _12
REMARK    6  A    between atoms: _12  and  _13
REMARK    7  A    between atoms: _12  and  _15
REMARK    8  A    between atoms: _15  and  _16
REMARK    9  A    between atoms: _16  and  _17
REMARK   10  A    between atoms: _22  and  _24
REMARK   11  A    between atoms: _24  and  _25
REMARK   12  A    between atoms: _24  and  _27
REMARK   13  A    between atoms: _27  and  _28
REMARK   14  A    between atoms: _28  and  CO_316
REMARK   15  A    between atoms: _29  and  _31
REMARK   16  A    between atoms: _31  and  _32
REMARK   17  A    between atoms: _31  and  _34
REMARK   18  A    between atoms: _34  and  _35
REMARK   19  A    between atoms: _38  and  _40
REMARK   20  A    between atoms: _49  and  _52
REMARK   21  A    between atoms: _52  and  _53
REMARK   22  A    between atoms: _57  and  _60
REMARK   23  A    between atoms: _59  and  _62
REMARK   24  A    between atoms: _64  and  _66
REMARK   25  A    between atoms: _66  and  _67
REMARK   26  A    between atoms: _66  and  _69
REMARK   27  A    between atoms: _69  and  _70
REMARK   28  A    between atoms: _75  and  _76
REMARK   29  A    between atoms: _78  and  _80
REMARK   30  A    between atoms: _80  and  _81
REMARK   31  A    between atoms: _80  and  _83
REMARK   32  A    between atoms: _83  and  _84
REMARK   33  A    between atoms: _94  and  _96
REMARK   34  A    between atoms: _96  and  _97
REMARK   35  A    between atoms: _96  and  _99
REMARK   36  A    between atoms: _99  and  _100
REMARK   37  A    between atoms: _104  and  _105
REMARK   38  A    between atoms: _110  and  _112
REMARK   39  A    between atoms: _112  and  _113
REMARK   40  A    between atoms: _112  and  _115
REMARK   41  A    between atoms: _115  and  _116
REMARK   42  A    between atoms: _122  and  _124
REMARK   43  A    between atoms: _124  and  _125
REMARK   44  A    between atoms: _124  and  _127
REMARK   45  A    between atoms: _127  and  _128
REMARK   46  A    between atoms: _128  and  _129
REMARK   47  A    between atoms: _129  and  _130
REMARK   48  A    between atoms: _130  and  _131
REMARK   49  A    between atoms: _135  and  _137
REMARK   50  A    between atoms: _137  and  _138
REMARK   51  A    between atoms: _137  and  _140
REMARK   52  A    between atoms: _140  and  _141
REMARK   53  A    between atoms: _143  and  _145
REMARK   54  A    between atoms: _145  and  _146
REMARK   55  A    between atoms: _145  and  _148
REMARK   56  A    between atoms: _148  and  _149
REMARK   57  A    between atoms: _149  and  _150
REMARK   58  A    between atoms: _153  and  _155
REMARK   59  A    between atoms: _155  and  _156
REMARK   60  A    between atoms: _155  and  _158
REMARK   61  A    between atoms: _158  and  _159
REMARK   62  A    between atoms: _159  and  _160
REMARK   63  A    between atoms: _160  and  _161
REMARK   64  A    between atoms: _170  and  _172
REMARK   65  A    between atoms: _172  and  _173
REMARK   66  A    between atoms: _172  and  _175
REMARK   67  A    between atoms: _175  and  _176
REMARK   68  A    between atoms: _182  and  _184
REMARK   69  A    between atoms: _184  and  _185
REMARK   70  A    between atoms: _184  and  _187
REMARK   71  A    between atoms: _187  and  _188
REMARK   72  A    between atoms: _194  and  _196
REMARK   73  A    between atoms: _196  and  _197
REMARK   74  A    between atoms: _196  and  _199
REMARK   75  A    between atoms: _199  and  _200
REMARK   76  A    between atoms: _203  and  _205
REMARK   77  A    between atoms: _205  and  _206
REMARK   78  A    between atoms: _205  and  _208
REMARK   79  A    between atoms: _208  and  _209
REMARK   80  A    between atoms: _215  and  _217
REMARK   81  A    between atoms: _217  and  _218
REMARK   82  A    between atoms: _217  and  _220
REMARK   83  A    between atoms: _220  and  _221
REMARK   84  A    between atoms: _221  and  _222
REMARK   85  A    between atoms: _222  and  _223
REMARK   86  A    between atoms: _232  and  _234
REMARK   87  A    between atoms: _234  and  _235
REMARK   88  A    between atoms: _234  and  _237
REMARK   89  A    between atoms: _237  and  _238
REMARK   90  A    between atoms: _241  and  _243
REMARK   91  A    between atoms: _243  and  _244
REMARK   92  A    between atoms: _243  and  _246
REMARK   93  A    between atoms: _246  and  _247
REMARK   94  A    between atoms: _252  and  _253
REMARK   95  A    between atoms: _255  and  _257
REMARK   96  A    between atoms: _257  and  _258
REMARK   97  A    between atoms: _257  and  _260
REMARK   98  A    between atoms: _260  and  _261
REMARK   99  A    between atoms: _266  and  _267
REMARK  100  A    between atoms: _269  and  _271
REMARK  101  A    between atoms: _271  and  _272
REMARK  102  A    between atoms: _271  and  _274
REMARK  103  A    between atoms: _274  and  _275
REMARK  104  A    between atoms: _285  and  _287
REMARK  105  A    between atoms: _287  and  _288
REMARK  106  A    between atoms: _287  and  _290
REMARK  107  A    between atoms: _290  and  _291
REMARK  108  A    between atoms: _296  and  _297
REMARK  109  A    between atoms: _299  and  _301
REMARK  110  A    between atoms: _301  and  _302
REMARK  111  A    between atoms: _301  and  _304
REMARK  112  A    between atoms: _304  and  _305
REMARK  113  A    between atoms: _305  and  _306
REMARK  114  A    between atoms: _306  and  _307
REMARK                            x       y       z     vdW  Elec       q    Type
REMARK                         _______ _______ _______ _____ _____    ______ ____
ROOT
ATOM      1  C   PHE A   1       3.888  36.255   8.143  0.00  0.00    +0.239 C 
ATOM      2  N   LYS A   2       3.805  35.002   8.578  0.00  0.00    -0.298 N 
ATOM      3  H   LYS A   2       2.871  34.546   8.614  0.00  0.00    +0.150 HD
ATOM      4  O   PHE A   1       4.955  36.869   8.043  0.00  0.00    -0.274 OA
ENDROOT
BRANCH   1   5
ATOM      5  CA  PHE A   1       2.563  36.913   7.766  0.00  0.00    +0.149 C 
BRANCH   5   6
ATOM      6  N   PHE A   1       1.626  35.932   7.223  0.00  0.00    -0.238 NA
ATOM      7  H   PHE A   1       0.770  35.700   7.765  0.00  0.00    +0.142 HD
ENDBRANCH   5   6
BRANCH   5   8
ATOM      8  CB  PHE A   1       1.944  37.583   9.001  0.00  0.00    +0.053 C 
BRANCH   8   9
ATOM      9  CG  PHE A   1       2.812  38.646   9.625  0.00  0.00    -0.020 A 
ATOM     10  CD2 PHE A   1       3.730  38.320  10.626  0.00  0.00    -0.004 A 
ATOM     11  CE2 PHE A   1       4.537  39.302  11.203  0.00  0.00    -0.000 A 
ATOM     12  CZ  PHE A   1       4.429  40.629  10.778  0.00  0.00    -0.000 A 
ATOM     13  CE1 PHE A   1       3.516  40.964   9.783  0.00  0.00    -0.000 A 
ATOM     14  CD1 PHE A   1       2.713  39.972   9.212  0.00  0.00    -0.004 A 
ENDBRANCH   8   9
ENDBRANCH   5   8
ENDBRANCH   1   5
BRANCH   2  15
ATOM     15  CA  LYS A   2       4.972  34.242   9.006  0.00  0.00    +0.137 C 
BRANCH  15  16
ATOM     16  C   LYS A   2       5.684  33.529   7.863  0.00  0.00    +0.227 C 
ATOM     17  O   LYS A   2       6.798  33.043   8.034  0.00  0.00    -0.286 OA
ENDBRANCH  15  16
BRANCH  15  18
ATOM     18  CB  LYS A   2       4.549  33.207  10.051  0.00  0.00    +0.028 C 
BRANCH  18  19
ATOM     19  CG  LYS A   2       3.933  33.822  11.297  0.00  0.00    -0.000 C 
BRANCH  19  20
ATOM     20  CD  LYS A   2       3.537  32.781  12.337  0.00  0.00    -0.024 C 
BRANCH  20  21
ATOM     21  CE  LYS A   2       2.205  32.129  12.029  0.00  0.00    -0.086 C 
BRANCH  21  22
ATOM     22  NZ  LYS A   2       1.791  31.224  13.140  0.00  0.00    +0.380 N 
ATOM     23  HZ1 LYS A   2       1.701  31.774  14.018  0.00  0.00    -0.089 HD
ATOM     24  HZ2 LYS A   2       2.508  30.481  13.266  0.00  0.00    -0.089 HD
ATOM     25  HZ3 LYS A   2       0.876  30.788  12.908  0.00  0.00    -0.089 HD
ENDBRANCH  21  22
ENDBRANCH  20  21
ENDBRANCH  19  20
ENDBRANCH  18  19
ENDBRANCH  15  18
ENDBRANCH   2  15
TORSDOF 11
REMARK  Name = ../refined-set-2016/1ugp/1ugp_pocket.pdb
REMARK  114 active torsions:
REMARK  status: ('A' for Active; 'I' for Inactive)
REMARK    1  A    between atoms: _1  and  _3
REMARK    2  A    between atoms: _3  and  _4
REMARK    3  A    between atoms: _3  and  _6
REMARK    4  A    between atoms: _6  and  _7
REMARK    5  A    between atoms: _10  and  _12
REMARK    6  A    between atoms: _12  and  _13
REMARK    7  A    between atoms: _12  and  _15
REMARK    8  A    between atoms: _15  and  _16
REMARK    9  A    between atoms: _16  and  _17
REMARK   10  A    between atoms: _22  and  _24
REMARK   11  A    between atoms: _24  and  _25
REMARK   12  A    between atoms: _24  and  _27
REMARK   13  A    between atoms: _27  and  _28
REMARK   14  A    between atoms: _28  and  CO_316
REMARK   15  A    between atoms: _29  and  _31
REMARK   16  A    between atoms: _31  and  _32
REMARK   17  A    between atoms: _31  and  _34
REMARK   18  A    between atoms: _34  and  _35
REMARK   19  A    between atoms: _38  and  _40
REMARK   20  A    between atoms: _49  and  _52
REMARK   21  A    between atoms: _52  and  _53
REMARK   22  A    between atoms: _57  and  _60
REMARK   23  A    between atoms: _59  and  _62
REMARK   24  A    between atoms: _64  and  _66
REMARK   25  A    between atoms: _66  and  _67
REMARK   26  A    between atoms: _66  and  _69
REMARK   27  A    between atoms: _69  and  _70
REMARK   28  A    between atoms: _75  and  _76
REMARK   29  A    between atoms: _78  and  _80
REMARK   30  A    between atoms: _80  and  _81
REMARK   31  A    between atoms: _80  and  _83
REMARK   32  A    between atoms: _83  and  _84
REMARK   33  A    between atoms: _94  and  _96
REMARK   34  A    between atoms: _96  and  _97
REMARK   35  A    between atoms: _96  and  _99
REMARK   36  A    between atoms: _99  and  _100
REMARK   37  A    between atoms: _104  and  _105
REMARK   38  A    between atoms: _110  and  _112
REMARK   39  A    between atoms: _112  and  _113
REMARK   40  A    between atoms: _112  and  _115
REMARK   41  A    between atoms: _115  and  _116
REMARK   42  A    between atoms: _122  and  _124
REMARK   43  A    between atoms: _124  and  _125
REMARK   44  A    between atoms: _124  and  _127
REMARK   45  A    between atoms: _127  and  _128
REMARK   46  A    between atoms: _128  and  _129
REMARK   47  A    between atoms: _129  and  _130
REMARK   48  A    between atoms: _130  and  _131
REMARK   49  A    between atoms: _135  and  _137
REMARK   50  A    between atoms: _137  and  _138
REMARK   51  A    between atoms: _137  and  _140
REMARK   52  A    between atoms: _140  and  _141
REMARK   53  A    between atoms: _143  and  _145
REMARK   54  A    between atoms: _145  and  _146
REMARK   55  A    between atoms: _145  and  _148
REMARK   56  A    between atoms: _148  and  _149
REMARK   57  A    between atoms: _149  and  _150
REMARK   58  A    between atoms: _153  and  _155
REMARK   59  A    between atoms: _155  and  _156
REMARK   60  A    between atoms: _155  and  _158
REMARK   61  A    between atoms: _158  and  _159
REMARK   62  A    between atoms: _159  and  _160
REMARK   63  A    between atoms: _160  and  _161
REMARK   64  A    between atoms: _170  and  _172
REMARK   65  A    between atoms: _172  and  _173
REMARK   66  A    between atoms: _172  and  _175
REMARK   67  A    between atoms: _175  and  _176
REMARK   68  A    between atoms: _182  and  _184
REMARK   69  A    between atoms: _184  and  _185
REMARK   70  A    between atoms: _184  and  _187
REMARK   71  A    between atoms: _187  and  _188
REMARK   72  A    between atoms: _194  and  _196
REMARK   73  A    between atoms: _196  and  _197
REMARK   74  A    between atoms: _196  and  _199
REMARK   75  A    between atoms: _199  and  _200
REMARK   76  A    between atoms: _203  and  _205
REMARK   77  A    between atoms: _205  and  _206
REMARK   78  A    between atoms: _205  and  _208
REMARK   79  A    between atoms: _208  and  _209
REMARK   80  A    between atoms: _215  and  _217
REMARK   81  A    between atoms: _217  and  _218
REMARK   82  A    between atoms: _217  and  _220
REMARK   83  A    between atoms: _220  and  _221
REMARK   84  A    between atoms: _221  and  _222
REMARK   85  A    between atoms: _222  and  _223
REMARK   86  A    between atoms: _232  and  _234
REMARK   87  A    between atoms: _234  and  _235
REMARK   88  A    between atoms: _234  and  _237
REMARK   89  A    between atoms: _237  and  _238
REMARK   90  A    between atoms: _241  and  _243
REMARK   91  A    between atoms: _243  and  _244
REMARK   92  A    between atoms: _243  and  _246
REMARK   93  A    between atoms: _246  and  _247
REMARK   94  A    between atoms: _252  and  _253
REMARK   95  A    between atoms: _255  and  _257
REMARK   96  A    between atoms: _257  and  _258
REMARK   97  A    between atoms: _257  and  _260
REMARK   98  A    between atoms: _260  and  _261
REMARK   99  A    between atoms: _266  and  _267
REMARK  100  A    between atoms: _269  and  _271
REMARK  101  A    between atoms: _271  and  _272
REMARK  102  A    between atoms: _271  and  _274
REMARK  103  A    between atoms: _274  and  _275
REMARK  104  A    between atoms: _285  and  _287
REMARK  105  A    between atoms: _287  and  _288
REMARK  106  A    between atoms: _287  and  _290
REMARK  107  A    between atoms: _290  and  _291
REMARK  108  A    between atoms: _296  and  _297
REMARK  109  A    between atoms: _299  and  _301
REMARK  110  A    between atoms: _301  and  _302
REMARK  111  A    between atoms: _301  and  _304
REMARK  112  A    between atoms: _304  and  _305
REMARK  113  A    between atoms: _305  and  _306
REMARK  114  A    between atoms: _306  and  _307
REMARK                            x       y       z     vdW  Elec       q    Type
REMARK                         _______ _______ _______ _____ _____    ______ ____
ROOT
ATOM      1  CA  SER A   1      10.977  44.145  13.204  0.00  0.00    +0.163 C 
ENDROOT
BRANCH   1   2
ATOM      2  N   SER A   1      10.746  44.420  11.788  0.00  0.00    -0.237 NA
ATOM      3  H   SER A   1       9.986  43.906  11.298  0.00  0.00    +0.142 HD
ENDBRANCH   1   2
BRANCH   1   4
ATOM      4  CB  SER A   1      12.202  43.265  13.462  0.00  0.00    +0.227 C 
ATOM      5  OG  SER A   1      12.080  42.087  13.801  0.00  0.00    -0.287 OA
ENDBRANCH   1   4
BRANCH   1   6
ATOM      6  C   SER A   1       9.724  43.522  13.833  0.00  0.00    +0.162 C 
BRANCH   6   7
ATOM      7  O   SER A   1       9.390  42.298  13.211  0.00  0.00    -0.380 OA
ATOM      8  H   SER A   1      10.142  41.662  13.311  0.00  0.00    +0.211 HD
ENDBRANCH   6   7
ENDBRANCH   1   6
TORSDOF 4
REMARK  Name = ../refined-set-2016/1ugp/1ugp_pocket.pdb
REMARK  114 active torsions:
REMARK  status: ('A' for Active; 'I' for Inactive)
REMARK    1  A    between atoms: _1  and  _3
REMARK    2  A    between atoms: _3  and  _4
REMARK    3  A    between atoms: _3  and  _6
REMARK    4  A    between atoms: _6  and  _7
REMARK    5  A    between atoms: _10  and  _12
REMARK    6  A    between atoms: _12  and  _13
REMARK    7  A    between atoms: _12  and  _15
REMARK    8  A    between atoms: _15  and  _16
REMARK    9  A    between atoms: _16  and  _17
REMARK   10  A    between atoms: _22  and  _24
REMARK   11  A    between atoms: _24  and  _25
REMARK   12  A    between atoms: _24  and  _27
REMARK   13  A    between atoms: _27  and  _28
REMARK   14  A    between atoms: _28  and  CO_316
REMARK   15  A    between atoms: _29  and  _31
REMARK   16  A    between atoms: _31  and  _32
REMARK   17  A    between atoms: _31  and  _34
REMARK   18  A    between atoms: _34  and  _35
REMARK   19  A    between atoms: _38  and  _40
REMARK   20  A    between atoms: _49  and  _52
REMARK   21  A    between atoms: _52  and  _53
REMARK   22  A    between atoms: _57  and  _60
REMARK   23  A    between atoms: _59  and  _62
REMARK   24  A    between atoms: _64  and  _66
REMARK   25  A    between atoms: _66  and  _67
REMARK   26  A    between atoms: _66  and  _69
REMARK   27  A    between atoms: _69  and  _70
REMARK   28  A    between atoms: _75  and  _76
REMARK   29  A    between atoms: _78  and  _80
REMARK   30  A    between atoms: _80  and  _81
REMARK   31  A    between atoms: _80  and  _83
REMARK   32  A    between atoms: _83  and  _84
REMARK   33  A    between atoms: _94  and  _96
REMARK   34  A    between atoms: _96  and  _97
REMARK   35  A    between atoms: _96  and  _99
REMARK   36  A    between atoms: _99  and  _100
REMARK   37  A    between atoms: _104  and  _105
REMARK   38  A    between atoms: _110  and  _112
REMARK   39  A    between atoms: _112  and  _113
REMARK   40  A    between atoms: _112  and  _115
REMARK   41  A    between atoms: _115  and  _116
REMARK   42  A    between atoms: _122  and  _124
REMARK   43  A    between atoms: _124  and  _125
REMARK   44  A    between atoms: _124  and  _127
REMARK   45  A    between atoms: _127  and  _128
REMARK   46  A    between atoms: _128  and  _129
REMARK   47  A    between atoms: _129  and  _130
REMARK   48  A    between atoms: _130  and  _131
REMARK   49  A    between atoms: _135  and  _137
REMARK   50  A    between atoms: _137  and  _138
REMARK   51  A    between atoms: _137  and  _140
REMARK   52  A    between atoms: _140  and  _141
REMARK   53  A    between atoms: _143  and  _145
REMARK   54  A    between atoms: _145  and  _146
REMARK   55  A    between atoms: _145  and  _148
REMARK   56  A    between atoms: _148  and  _149
REMARK   57  A    between atoms: _149  and  _150
REMARK   58  A    between atoms: _153  and  _155
REMARK   59  A    between atoms: _155  and  _156
REMARK   60  A    between atoms: _155  and  _158
REMARK   61  A    between atoms: _158  and  _159
REMARK   62  A    between atoms: _159  and  _160
REMARK   63  A    between atoms: _160  and  _161
REMARK   64  A    between atoms: _170  and  _172
REMARK   65  A    between atoms: _172  and  _173
REMARK   66  A    between atoms: _172  and  _175
REMARK   67  A    between atoms: _175  and  _176
REMARK   68  A    between atoms: _182  and  _184
REMARK   69  A    between atoms: _184  and  _185
REMARK   70  A    between atoms: _184  and  _187
REMARK   71  A    between atoms: _187  and  _188
REMARK   72  A    between atoms: _194  and  _196
REMARK   73  A    between atoms: _196  and  _197
REMARK   74  A    between atoms: _196  and  _199
REMARK   75  A    between atoms: _199  and  _200
REMARK   76  A    between atoms: _203  and  _205
REMARK   77  A    between atoms: _205  and  _206
REMARK   78  A    between atoms: _205  and  _208
REMARK   79  A    between atoms: _208  and  _209
REMARK   80  A    between atoms: _215  and  _217
REMARK   81  A    between atoms: _217  and  _218
REMARK   82  A    between atoms: _217  and  _220
REMARK   83  A    between atoms: _220  and  _221
REMARK   84  A    between atoms: _221  and  _222
REMARK   85  A    between atoms: _222  and  _223
REMARK   86  A    between atoms: _232  and  _234
REMARK   87  A    between atoms: _234  and  _235
REMARK   88  A    between atoms: _234  and  _237
REMARK   89  A    between atoms: _237  and  _238
REMARK   90  A    between atoms: _241  and  _243
REMARK   91  A    between atoms: _243  and  _244
REMARK   92  A    between atoms: _243  and  _246
REMARK   93  A    between atoms: _246  and  _247
REMARK   94  A    between atoms: _252  and  _253
REMARK   95  A    between atoms: _255  and  _257
REMARK   96  A    between atoms: _257  and  _258
REMARK   97  A    between atoms: _257  and  _260
REMARK   98  A    between atoms: _260  and  _261
REMARK   99  A    between atoms: _266  and  _267
REMARK  100  A    between atoms: _269  and  _271
REMARK  101  A    between atoms: _271  and  _272
REMARK  102  A    between atoms: _271  and  _274
REMARK  103  A    between atoms: _274  and  _275
REMARK  104  A    between atoms: _285  and  _287
REMARK  105  A    between atoms: _287  and  _288
REMARK  106  A    between atoms: _287  and  _290
REMARK  107  A    between atoms: _290  and  _291
REMARK  108  A    between atoms: _296  and  _297
REMARK  109  A    between atoms: _299  and  _301
REMARK  110  A    between atoms: _301  and  _302
REMARK  111  A    between atoms: _301  and  _304
REMARK  112  A    between atoms: _304  and  _305
REMARK  113  A    between atoms: _305  and  _306
REMARK  114  A    between atoms: _306  and  _307
REMARK                            x       y       z     vdW  Elec       q    Type
REMARK                         _______ _______ _______ _____ _____    ______ ____
ROOT
ATOM      1  CA  GLU A   1      12.248  43.461  20.162  0.00  0.00    +0.134 C 
ENDROOT
BRANCH   1   2
ATOM      2  N   GLU A   1      13.413  43.757  19.352  0.00  0.00    -0.239 NA
ATOM      3  H   GLU A   1      14.272  44.135  19.801  0.00  0.00    +0.142 HD
ENDBRANCH   1   2
BRANCH   1   4
ATOM      4  C   GLU A   1      11.189  44.552  20.079  0.00  0.00    +0.224 C 
ATOM      5  O   GLU A   1      10.099  44.411  20.628  0.00  0.00    -0.287 OA
ENDBRANCH   1   4
BRANCH   1   6
ATOM      6  CB  GLU A   1      12.640  43.155  21.606  0.00  0.00    +0.037 C 
BRANCH   6   7
ATOM      7  CG  GLU A   1      13.329  41.806  21.746  0.00  0.00    +0.116 C 
BRANCH   7   8
ATOM      8  CD  GLU A   1      12.565  40.700  21.033  0.00  0.00    +0.365 C 
ATOM      9  OE2 GLU A   1      11.488  40.301  21.517  0.00  0.00    -0.246 OA
ATOM     10  OE1 GLU A   1      13.034  40.245  19.973  0.00  0.00    -0.246 OA
ENDBRANCH   7   8
ENDBRANCH   6   7
ENDBRANCH   1   6
TORSDOF 5
REMARK  Name = ../refined-set-2016/1ugp/1ugp_pocket.pdb
REMARK  114 active torsions:
REMARK  status: ('A' for Active; 'I' for Inactive)
REMARK    1  A    between atoms: _1  and  _3
REMARK    2  A    between atoms: _3  and  _4
REMARK    3  A    between atoms: _3  and  _6
REMARK    4  A    between atoms: _6  and  _7
REMARK    5  A    between atoms: _10  and  _12
REMARK    6  A    between atoms: _12  and  _13
REMARK    7  A    between atoms: _12  and  _15
REMARK    8  A    between atoms: _15  and  _16
REMARK    9  A    between atoms: _16  and  _17
REMARK   10  A    between atoms: _22  and  _24
REMARK   11  A    between atoms: _24  and  _25
REMARK   12  A    between atoms: _24  and  _27
REMARK   13  A    between atoms: _27  and  _28
REMARK   14  A    between atoms: _28  and  CO_316
REMARK   15  A    between atoms: _29  and  _31
REMARK   16  A    between atoms: _31  and  _32
REMARK   17  A    between atoms: _31  and  _34
REMARK   18  A    between atoms: _34  and  _35
REMARK   19  A    between atoms: _38  and  _40
REMARK   20  A    between atoms: _49  and  _52
REMARK   21  A    between atoms: _52  and  _53
REMARK   22  A    between atoms: _57  and  _60
REMARK   23  A    between atoms: _59  and  _62
REMARK   24  A    between atoms: _64  and  _66
REMARK   25  A    between atoms: _66  and  _67
REMARK   26  A    between atoms: _66  and  _69
REMARK   27  A    between atoms: _69  and  _70
REMARK   28  A    between atoms: _75  and  _76
REMARK   29  A    between atoms: _78  and  _80
REMARK   30  A    between atoms: _80  and  _81
REMARK   31  A    between atoms: _80  and  _83
REMARK   32  A    between atoms: _83  and  _84
REMARK   33  A    between atoms: _94  and  _96
REMARK   34  A    between atoms: _96  and  _97
REMARK   35  A    between atoms: _96  and  _99
REMARK   36  A    between atoms: _99  and  _100
REMARK   37  A    between atoms: _104  and  _105
REMARK   38  A    between atoms: _110  and  _112
REMARK   39  A    between atoms: _112  and  _113
REMARK   40  A    between atoms: _112  and  _115
REMARK   41  A    between atoms: _115  and  _116
REMARK   42  A    between atoms: _122  and  _124
REMARK   43  A    between atoms: _124  and  _125
REMARK   44  A    between atoms: _124  and  _127
REMARK   45  A    between atoms: _127  and  _128
REMARK   46  A    between atoms: _128  and  _129
REMARK   47  A    between atoms: _129  and  _130
REMARK   48  A    between atoms: _130  and  _131
REMARK   49  A    between atoms: _135  and  _137
REMARK   50  A    between atoms: _137  and  _138
REMARK   51  A    between atoms: _137  and  _140
REMARK   52  A    between atoms: _140  and  _141
REMARK   53  A    between atoms: _143  and  _145
REMARK   54  A    between atoms: _145  and  _146
REMARK   55  A    between atoms: _145  and  _148
REMARK   56  A    between atoms: _148  and  _149
REMARK   57  A    between atoms: _149  and  _150
REMARK   58  A    between atoms: _153  and  _155
REMARK   59  A    between atoms: _155  and  _156
REMARK   60  A    between atoms: _155  and  _158
REMARK   61  A    between atoms: _158  and  _159
REMARK   62  A    between atoms: _159  and  _160
REMARK   63  A    between atoms: _160  and  _161
REMARK   64  A    between atoms: _170  and  _172
REMARK   65  A    between atoms: _172  and  _173
REMARK   66  A    between atoms: _172  and  _175
REMARK   67  A    between atoms: _175  and  _176
REMARK   68  A    between atoms: _182  and  _184
REMARK   69  A    between atoms: _184  and  _185
REMARK   70  A    between atoms: _184  and  _187
REMARK   71  A    between atoms: _187  and  _188
REMARK   72  A    between atoms: _194  and  _196
REMARK   73  A    between atoms: _196  and  _197
REMARK   74  A    between atoms: _196  and  _199
REMARK   75  A    between atoms: _199  and  _200
REMARK   76  A    between atoms: _203  and  _205
REMARK   77  A    between atoms: _205  and  _206
REMARK   78  A    between atoms: _205  and  _208
REMARK   79  A    between atoms: _208  and  _209
REMARK   80  A    between atoms: _215  and  _217
REMARK   81  A    between atoms: _217  and  _218
REMARK   82  A    between atoms: _217  and  _220
REMARK   83  A    between atoms: _220  and  _221
REMARK   84  A    between atoms: _221  and  _222
REMARK   85  A    between atoms: _222  and  _223
REMARK   86  A    between atoms: _232  and  _234
REMARK   87  A    between atoms: _234  and  _235
REMARK   88  A    between atoms: _234  and  _237
REMARK   89  A    between atoms: _237  and  _238
REMARK   90  A    between atoms: _241  and  _243
REMARK   91  A    between atoms: _243  and  _244
REMARK   92  A    between atoms: _243  and  _246
REMARK   93  A    between atoms: _246  and  _247
REMARK   94  A    between atoms: _252  and  _253
REMARK   95  A    between atoms: _255  and  _257
REMARK   96  A    between atoms: _257  and  _258
REMARK   97  A    between atoms: _257  and  _260
REMARK   98  A    between atoms: _260  and  _261
REMARK   99  A    between atoms: _266  and  _267
REMARK  100  A    between atoms: _269  and  _271
REMARK  101  A    between atoms: _271  and  _272
REMARK  102  A    between atoms: _271  and  _274
REMARK  103  A    between atoms: _274  and  _275
REMARK  104  A    between atoms: _285  and  _287
REMARK  105  A    between atoms: _287  and  _288
REMARK  106  A    between atoms: _287  and  _290
REMARK  107  A    between atoms: _290  and  _291
REMARK  108  A    between atoms: _296  and  _297
REMARK  109  A    between atoms: _299  and  _301
REMARK  110  A    between atoms: _301  and  _302
REMARK  111  A    between atoms: _301  and  _304
REMARK  112  A    between atoms: _304  and  _305
REMARK  113  A    between atoms: _305  and  _306
REMARK  114  A    between atoms: _306  and  _307
REMARK                            x       y       z     vdW  Elec       q    Type
REMARK                         _______ _______ _______ _____ _____    ______ ____
ROOT
ATOM      1  NE  ARG A   1       7.919  41.613  18.613  0.00  0.00    -0.265 N 
ATOM      2  HE  ARG A   1       7.556  40.830  19.193  0.00  0.00    +0.259 HD
ATOM      3  CZ  ARG A   1       9.209  41.608  18.295  0.00  0.00    +0.342 C 
ATOM      4  NH2 ARG A   1       9.994  40.622  18.709  0.00  0.00    -0.292 N 
ATOM      5 HH21 ARG A   1       9.600  39.850  19.284  0.00  0.00    +0.255 HD
ATOM      6 HH22 ARG A   1      11.003  40.621  18.458  0.00  0.00    +0.255 HD
ATOM      7  NH1 ARG A   1       9.715  42.587  17.555  0.00  0.00    -0.292 N 
ATOM      8 HH11 ARG A   1      10.725  42.582  17.307  0.00  0.00    +0.255 HD
ATOM      9 HH12 ARG A   1       9.102  43.359  17.224  0.00  0.00    +0.255 HD
ENDROOT
BRANCH   1  10
ATOM     10  CD  ARG A   1       6.982  42.650  18.198  0.00  0.00    +0.174 C 
BRANCH  10  11
ATOM     11  CG  ARG A   1       6.793  43.706  19.275  0.00  0.00    +0.045 C 
BRANCH  11  12
ATOM     12  CB  ARG A   1       6.164  44.960  18.700  0.00  0.00    +0.029 C 
BRANCH  12  13
ATOM     13  CA  ARG A   1       7.116  45.783  17.829  0.00  0.00    +0.133 C 
BRANCH  13  14
ATOM     14  N   ARG A   1       8.231  46.274  18.629  0.00  0.00    -0.239 NA
ATOM     15  H   ARG A   1       8.032  46.733  19.541  0.00  0.00    +0.142 HD
ENDBRANCH  13  14
BRANCH  13  16
ATOM     16  C   ARG A   1       6.379  46.965  17.226  0.00  0.00    +0.224 C 
ATOM     17  O   ARG A   1       5.889  47.835  17.944  0.00  0.00    -0.287 OA
ENDBRANCH  13  16
ENDBRANCH  12  13
ENDBRANCH  11  12
ENDBRANCH  10  11
ENDBRANCH   1  10
TORSDOF 6
REMARK  Name = ../refined-set-2016/1ugp/1ugp_pocket.pdb
REMARK  114 active torsions:
REMARK  status: ('A' for Active; 'I' for Inactive)
REMARK    1  A    between atoms: _1  and  _3
REMARK    2  A    between atoms: _3  and  _4
REMARK    3  A    between atoms: _3  and  _6
REMARK    4  A    between atoms: _6  and  _7
REMARK    5  A    between atoms: _10  and  _12
REMARK    6  A    between atoms: _12  and  _13
REMARK    7  A    between atoms: _12  and  _15
REMARK    8  A    between atoms: _15  and  _16
REMARK    9  A    between atoms: _16  and  _17
REMARK   10  A    between atoms: _22  and  _24
REMARK   11  A    between atoms: _24  and  _25
REMARK   12  A    between atoms: _24  and  _27
REMARK   13  A    between atoms: _27  and  _28
REMARK   14  A    between atoms: _28  and  CO_316
REMARK   15  A    between atoms: _29  and  _31
REMARK   16  A    between atoms: _31  and  _32
REMARK   17  A    between atoms: _31  and  _34
REMARK   18  A    between atoms: _34  and  _35
REMARK   19  A    between atoms: _38  and  _40
REMARK   20  A    between atoms: _49  and  _52
REMARK   21  A    between atoms: _52  and  _53
REMARK   22  A    between atoms: _57  and  _60
REMARK   23  A    between atoms: _59  and  _62
REMARK   24  A    between atoms: _64  and  _66
REMARK   25  A    between atoms: _66  and  _67
REMARK   26  A    between atoms: _66  and  _69
REMARK   27  A    between atoms: _69  and  _70
REMARK   28  A    between atoms: _75  and  _76
REMARK   29  A    between atoms: _78  and  _80
REMARK   30  A    between atoms: _80  and  _81
REMARK   31  A    between atoms: _80  and  _83
REMARK   32  A    between atoms: _83  and  _84
REMARK   33  A    between atoms: _94  and  _96
REMARK   34  A    between atoms: _96  and  _97
REMARK   35  A    between atoms: _96  and  _99
REMARK   36  A    between atoms: _99  and  _100
REMARK   37  A    between atoms: _104  and  _105
REMARK   38  A    between atoms: _110  and  _112
REMARK   39  A    between atoms: _112  and  _113
REMARK   40  A    between atoms: _112  and  _115
REMARK   41  A    between atoms: _115  and  _116
REMARK   42  A    between atoms: _122  and  _124
REMARK   43  A    between atoms: _124  and  _125
REMARK   44  A    between atoms: _124  and  _127
REMARK   45  A    between atoms: _127  and  _128
REMARK   46  A    between atoms: _128  and  _129
REMARK   47  A    between atoms: _129  and  _130
REMARK   48  A    between atoms: _130  and  _131
REMARK   49  A    between atoms: _135  and  _137
REMARK   50  A    between atoms: _137  and  _138
REMARK   51  A    between atoms: _137  and  _140
REMARK   52  A    between atoms: _140  and  _141
REMARK   53  A    between atoms: _143  and  _145
REMARK   54  A    between atoms: _145  and  _146
REMARK   55  A    between atoms: _145  and  _148
REMARK   56  A    between atoms: _148  and  _149
REMARK   57  A    between atoms: _149  and  _150
REMARK   58  A    between atoms: _153  and  _155
REMARK   59  A    between atoms: _155  and  _156
REMARK   60  A    between atoms: _155  and  _158
REMARK   61  A    between atoms: _158  and  _159
REMARK   62  A    between atoms: _159  and  _160
REMARK   63  A    between atoms: _160  and  _161
REMARK   64  A    between atoms: _170  and  _172
REMARK   65  A    between atoms: _172  and  _173
REMARK   66  A    between atoms: _172  and  _175
REMARK   67  A    between atoms: _175  and  _176
REMARK   68  A    between atoms: _182  and  _184
REMARK   69  A    between atoms: _184  and  _185
REMARK   70  A    between atoms: _184  and  _187
REMARK   71  A    between atoms: _187  and  _188
REMARK   72  A    between atoms: _194  and  _196
REMARK   73  A    between atoms: _196  and  _197
REMARK   74  A    between atoms: _196  and  _199
REMARK   75  A    between atoms: _199  and  _200
REMARK   76  A    between atoms: _203  and  _205
REMARK   77  A    between atoms: _205  and  _206
REMARK   78  A    between atoms: _205  and  _208
REMARK   79  A    between atoms: _208  and  _209
REMARK   80  A    between atoms: _215  and  _217
REMARK   81  A    between atoms: _217  and  _218
REMARK   82  A    between atoms: _217  and  _220
REMARK   83  A    between atoms: _220  and  _221
REMARK   84  A    between atoms: _221  and  _222
REMARK   85  A    between atoms: _222  and  _223
REMARK   86  A    between atoms: _232  and  _234
REMARK   87  A    between atoms: _234  and  _235
REMARK   88  A    between atoms: _234  and  _237
REMARK   89  A    between atoms: _237  and  _238
REMARK   90  A    between atoms: _241  and  _243
REMARK   91  A    between atoms: _243  and  _244
REMARK   92  A    between atoms: _243  and  _246
REMARK   93  A    between atoms: _246  and  _247
REMARK   94  A    between atoms: _252  and  _253
REMARK   95  A    between atoms: _255  and  _257
REMARK   96  A    between atoms: _257  and  _258
REMARK   97  A    between atoms: _257  and  _260
REMARK   98  A    between atoms: _260  and  _261
REMARK   99  A    between atoms: _266  and  _267
REMARK  100  A    between atoms: _269  and  _271
REMARK  101  A    between atoms: _271  and  _272
REMARK  102  A    between atoms: _271  and  _274
REMARK  103  A    between atoms: _274  and  _275
REMARK  104  A    between atoms: _285  and  _287
REMARK  105  A    between atoms: _287  and  _288
REMARK  106  A    between atoms: _287  and  _290
REMARK  107  A    between atoms: _290  and  _291
REMARK  108  A    between atoms: _296  and  _297
REMARK  109  A    between atoms: _299  and  _301
REMARK  110  A    between atoms: _301  and  _302
REMARK  111  A    between atoms: _301  and  _304
REMARK  112  A    between atoms: _304  and  _305
REMARK  113  A    between atoms: _305  and  _306
REMARK  114  A    between atoms: _306  and  _307
REMARK                            x       y       z     vdW  Elec       q    Type
REMARK                         _______ _______ _______ _____ _____    ______ ____
ROOT
ATOM      1  CB  PHE A   1       1.875  27.231  20.592  0.00  0.00    +0.051 C 
ENDROOT
BRANCH   1   2
ATOM      2  CG  PHE A   1       1.646  28.624  21.091  0.00  0.00    -0.020 A 
ATOM      3  CD2 PHE A   1       0.692  28.871  22.069  0.00  0.00    -0.004 A 
ATOM      4  CE2 PHE A   1       0.470  30.159  22.536  0.00  0.00    -0.000 A 
ATOM      5  CZ  PHE A   1       1.208  31.219  22.021  0.00  0.00    -0.000 A 
ATOM      6  CE1 PHE A   1       2.167  30.985  21.041  0.00  0.00    -0.000 A 
ATOM      7  CD1 PHE A   1       2.381  29.690  20.581  0.00  0.00    -0.004 A 
ENDBRANCH   1   2
BRANCH   1   8
ATOM      8  CA  PHE A   1       3.265  26.676  20.916  0.00  0.00    +0.137 C 
BRANCH   8   9
ATOM      9  N   PHE A   1       3.374  25.323  20.396  0.00  0.00    -0.239 NA
ATOM     10  H   PHE A   1       2.538  24.885  19.960  0.00  0.00    +0.142 HD
ENDBRANCH   8   9
BRANCH   8  11
ATOM     11  C   PHE A   1       3.534  26.739  22.426  0.00  0.00    +0.224 C 
ATOM     12  O   PHE A   1       4.345  27.549  22.886  0.00  0.00    -0.287 OA
ENDBRANCH   8  11
ENDBRANCH   1   8
TORSDOF 4
REMARK  Name = ../refined-set-2016/1ugp/1ugp_pocket.pdb
REMARK  114 active torsions:
REMARK  status: ('A' for Active; 'I' for Inactive)
REMARK    1  A    between atoms: _1  and  _3
REMARK    2  A    between atoms: _3  and  _4
REMARK    3  A    between atoms: _3  and  _6
REMARK    4  A    between atoms: _6  and  _7
REMARK    5  A    between atoms: _10  and  _12
REMARK    6  A    between atoms: _12  and  _13
REMARK    7  A    between atoms: _12  and  _15
REMARK    8  A    between atoms: _15  and  _16
REMARK    9  A    between atoms: _16  and  _17
REMARK   10  A    between atoms: _22  and  _24
REMARK   11  A    between atoms: _24  and  _25
REMARK   12  A    between atoms: _24  and  _27
REMARK   13  A    between atoms: _27  and  _28
REMARK   14  A    between atoms: _28  and  CO_316
REMARK   15  A    between atoms: _29  and  _31
REMARK   16  A    between atoms: _31  and  _32
REMARK   17  A    between atoms: _31  and  _34
REMARK   18  A    between atoms: _34  and  _35
REMARK   19  A    between atoms: _38  and  _40
REMARK   20  A    between atoms: _49  and  _52
REMARK   21  A    between atoms: _52  and  _53
REMARK   22  A    between atoms: _57  and  _60
REMARK   23  A    between atoms: _59  and  _62
REMARK   24  A    between atoms: _64  and  _66
REMARK   25  A    between atoms: _66  and  _67
REMARK   26  A    between atoms: _66  and  _69
REMARK   27  A    between atoms: _69  and  _70
REMARK   28  A    between atoms: _75  and  _76
REMARK   29  A    between atoms: _78  and  _80
REMARK   30  A    between atoms: _80  and  _81
REMARK   31  A    between atoms: _80  and  _83
REMARK   32  A    between atoms: _83  and  _84
REMARK   33  A    between atoms: _94  and  _96
REMARK   34  A    between atoms: _96  and  _97
REMARK   35  A    between atoms: _96  and  _99
REMARK   36  A    between atoms: _99  and  _100
REMARK   37  A    between atoms: _104  and  _105
REMARK   38  A    between atoms: _110  and  _112
REMARK   39  A    between atoms: _112  and  _113
REMARK   40  A    between atoms: _112  and  _115
REMARK   41  A    between atoms: _115  and  _116
REMARK   42  A    between atoms: _122  and  _124
REMARK   43  A    between atoms: _124  and  _125
REMARK   44  A    between atoms: _124  and  _127
REMARK   45  A    between atoms: _127  and  _128
REMARK   46  A    between atoms: _128  and  _129
REMARK   47  A    between atoms: _129  and  _130
REMARK   48  A    between atoms: _130  and  _131
REMARK   49  A    between atoms: _135  and  _137
REMARK   50  A    between atoms: _137  and  _138
REMARK   51  A    between atoms: _137  and  _140
REMARK   52  A    between atoms: _140  and  _141
REMARK   53  A    between atoms: _143  and  _145
REMARK   54  A    between atoms: _145  and  _146
REMARK   55  A    between atoms: _145  and  _148
REMARK   56  A    between atoms: _148  and  _149
REMARK   57  A    between atoms: _149  and  _150
REMARK   58  A    between atoms: _153  and  _155
REMARK   59  A    between atoms: _155  and  _156
REMARK   60  A    between atoms: _155  and  _158
REMARK   61  A    between atoms: _158  and  _159
REMARK   62  A    between atoms: _159  and  _160
REMARK   63  A    between atoms: _160  and  _161
REMARK   64  A    between atoms: _170  and  _172
REMARK   65  A    between atoms: _172  and  _173
REMARK   66  A    between atoms: _172  and  _175
REMARK   67  A    between atoms: _175  and  _176
REMARK   68  A    between atoms: _182  and  _184
REMARK   69  A    between atoms: _184  and  _185
REMARK   70  A    between atoms: _184  and  _187
REMARK   71  A    between atoms: _187  and  _188
REMARK   72  A    between atoms: _194  and  _196
REMARK   73  A    between atoms: _196  and  _197
REMARK   74  A    between atoms: _196  and  _199
REMARK   75  A    between atoms: _199  and  _200
REMARK   76  A    between atoms: _203  and  _205
REMARK   77  A    between atoms: _205  and  _206
REMARK   78  A    between atoms: _205  and  _208
REMARK   79  A    between atoms: _208  and  _209
REMARK   80  A    between atoms: _215  and  _217
REMARK   81  A    between atoms: _217  and  _218
REMARK   82  A    between atoms: _217  and  _220
REMARK   83  A    between atoms: _220  and  _221
REMARK   84  A    between atoms: _221  and  _222
REMARK   85  A    between atoms: _222  and  _223
REMARK   86  A    between atoms: _232  and  _234
REMARK   87  A    between atoms: _234  and  _235
REMARK   88  A    between atoms: _234  and  _237
REMARK   89  A    between atoms: _237  and  _238
REMARK   90  A    between atoms: _241  and  _243
REMARK   91  A    between atoms: _243  and  _244
REMARK   92  A    between atoms: _243  and  _246
REMARK   93  A    between atoms: _246  and  _247
REMARK   94  A    between atoms: _252  and  _253
REMARK   95  A    between atoms: _255  and  _257
REMARK   96  A    between atoms: _257  and  _258
REMARK   97  A    between atoms: _257  and  _260
REMARK   98  A    between atoms: _260  and  _261
REMARK   99  A    between atoms: _266  and  _267
REMARK  100  A    between atoms: _269  and  _271
REMARK  101  A    between atoms: _271  and  _272
REMARK  102  A    between atoms: _271  and  _274
REMARK  103  A    between atoms: _274  and  _275
REMARK  104  A    between atoms: _285  and  _287
REMARK  105  A    between atoms: _287  and  _288
REMARK  106  A    between atoms: _287  and  _290
REMARK  107  A    between atoms: _290  and  _291
REMARK  108  A    between atoms: _296  and  _297
REMARK  109  A    between atoms: _299  and  _301
REMARK  110  A    between atoms: _301  and  _302
REMARK  111  A    between atoms: _301  and  _304
REMARK  112  A    between atoms: _304  and  _305
REMARK  113  A    between atoms: _305  and  _306
REMARK  114  A    between atoms: _306  and  _307
REMARK                            x       y       z     vdW  Elec       q    Type
REMARK                         _______ _______ _______ _____ _____    ______ ____
ROOT
ATOM      1  CB  PHE A   1       7.203  28.972  23.220  0.00  0.00    +0.051 C 
ENDROOT
BRANCH   1   2
ATOM      2  CG  PHE A   1       7.937  30.283  23.228  0.00  0.00    -0.020 A 
ATOM      3  CD2 PHE A   1       7.315  31.436  23.700  0.00  0.00    -0.004 A 
ATOM      4  CE2 PHE A   1       7.990  32.658  23.718  0.00  0.00    -0.000 A 
ATOM      5  CZ  PHE A   1       9.300  32.729  23.260  0.00  0.00    -0.000 A 
ATOM      6  CE1 PHE A   1       9.932  31.582  22.784  0.00  0.00    -0.000 A 
ATOM      7  CD1 PHE A   1       9.248  30.367  22.771  0.00  0.00    -0.004 A 
ENDBRANCH   1   2
BRANCH   1   8
ATOM      8  CA  PHE A   1       7.883  27.864  24.044  0.00  0.00    +0.137 C 
BRANCH   8   9
ATOM      9  N   PHE A   1       7.066  26.647  24.040  0.00  0.00    -0.239 NA
ATOM     10  H   PHE A   1       6.128  26.669  23.592  0.00  0.00    +0.142 HD
ENDBRANCH   8   9
BRANCH   8  11
ATOM     11  C   PHE A   1       8.170  28.299  25.491  0.00  0.00    +0.224 C 
ATOM     12  O   PHE A   1       9.326  28.304  25.914  0.00  0.00    -0.287 OA
ENDBRANCH   8  11
ENDBRANCH   1   8
TORSDOF 4
REMARK  Name = ../refined-set-2016/1ugp/1ugp_pocket.pdb
REMARK  114 active torsions:
REMARK  status: ('A' for Active; 'I' for Inactive)
REMARK    1  A    between atoms: _1  and  _3
REMARK    2  A    between atoms: _3  and  _4
REMARK    3  A    between atoms: _3  and  _6
REMARK    4  A    between atoms: _6  and  _7
REMARK    5  A    between atoms: _10  and  _12
REMARK    6  A    between atoms: _12  and  _13
REMARK    7  A    between atoms: _12  and  _15
REMARK    8  A    between atoms: _15  and  _16
REMARK    9  A    between atoms: _16  and  _17
REMARK   10  A    between atoms: _22  and  _24
REMARK   11  A    between atoms: _24  and  _25
REMARK   12  A    between atoms: _24  and  _27
REMARK   13  A    between atoms: _27  and  _28
REMARK   14  A    between atoms: _28  and  CO_316
REMARK   15  A    between atoms: _29  and  _31
REMARK   16  A    between atoms: _31  and  _32
REMARK   17  A    between atoms: _31  and  _34
REMARK   18  A    between atoms: _34  and  _35
REMARK   19  A    between atoms: _38  and  _40
REMARK   20  A    between atoms: _49  and  _52
REMARK   21  A    between atoms: _52  and  _53
REMARK   22  A    between atoms: _57  and  _60
REMARK   23  A    between atoms: _59  and  _62
REMARK   24  A    between atoms: _64  and  _66
REMARK   25  A    between atoms: _66  and  _67
REMARK   26  A    between atoms: _66  and  _69
REMARK   27  A    between atoms: _69  and  _70
REMARK   28  A    between atoms: _75  and  _76
REMARK   29  A    between atoms: _78  and  _80
REMARK   30  A    between atoms: _80  and  _81
REMARK   31  A    between atoms: _80  and  _83
REMARK   32  A    between atoms: _83  and  _84
REMARK   33  A    between atoms: _94  and  _96
REMARK   34  A    between atoms: _96  and  _97
REMARK   35  A    between atoms: _96  and  _99
REMARK   36  A    between atoms: _99  and  _100
REMARK   37  A    between atoms: _104  and  _105
REMARK   38  A    between atoms: _110  and  _112
REMARK   39  A    between atoms: _112  and  _113
REMARK   40  A    between atoms: _112  and  _115
REMARK   41  A    between atoms: _115  and  _116
REMARK   42  A    between atoms: _122  and  _124
REMARK   43  A    between atoms: _124  and  _125
REMARK   44  A    between atoms: _124  and  _127
REMARK   45  A    between atoms: _127  and  _128
REMARK   46  A    between atoms: _128  and  _129
REMARK   47  A    between atoms: _129  and  _130
REMARK   48  A    between atoms: _130  and  _131
REMARK   49  A    between atoms: _135  and  _137
REMARK   50  A    between atoms: _137  and  _138
REMARK   51  A    between atoms: _137  and  _140
REMARK   52  A    between atoms: _140  and  _141
REMARK   53  A    between atoms: _143  and  _145
REMARK   54  A    between atoms: _145  and  _146
REMARK   55  A    between atoms: _145  and  _148
REMARK   56  A    between atoms: _148  and  _149
REMARK   57  A    between atoms: _149  and  _150
REMARK   58  A    between atoms: _153  and  _155
REMARK   59  A    between atoms: _155  and  _156
REMARK   60  A    between atoms: _155  and  _158
REMARK   61  A    between atoms: _158  and  _159
REMARK   62  A    between atoms: _159  and  _160
REMARK   63  A    between atoms: _160  and  _161
REMARK   64  A    between atoms: _170  and  _172
REMARK   65  A    between atoms: _172  and  _173
REMARK   66  A    between atoms: _172  and  _175
REMARK   67  A    between atoms: _175  and  _176
REMARK   68  A    between atoms: _182  and  _184
REMARK   69  A    between atoms: _184  and  _185
REMARK   70  A    between atoms: _184  and  _187
REMARK   71  A    between atoms: _187  and  _188
REMARK   72  A    between atoms: _194  and  _196
REMARK   73  A    between atoms: _196  and  _197
REMARK   74  A    between atoms: _196  and  _199
REMARK   75  A    between atoms: _199  and  _200
REMARK   76  A    between atoms: _203  and  _205
REMARK   77  A    between atoms: _205  and  _206
REMARK   78  A    between atoms: _205  and  _208
REMARK   79  A    between atoms: _208  and  _209
REMARK   80  A    between atoms: _215  and  _217
REMARK   81  A    between atoms: _217  and  _218
REMARK   82  A    between atoms: _217  and  _220
REMARK   83  A    between atoms: _220  and  _221
REMARK   84  A    between atoms: _221  and  _222
REMARK   85  A    between atoms: _222  and  _223
REMARK   86  A    between atoms: _232  and  _234
REMARK   87  A    between atoms: _234  and  _235
REMARK   88  A    between atoms: _234  and  _237
REMARK   89  A    between atoms: _237  and  _238
REMARK   90  A    between atoms: _241  and  _243
REMARK   91  A    between atoms: _243  and  _244
REMARK   92  A    between atoms: _243  and  _246
REMARK   93  A    between atoms: _246  and  _247
REMARK   94  A    between atoms: _252  and  _253
REMARK   95  A    between atoms: _255  and  _257
REMARK   96  A    between atoms: _257  and  _258
REMARK   97  A    between atoms: _257  and  _260
REMARK   98  A    between atoms: _260  and  _261
REMARK   99  A    between atoms: _266  and  _267
REMARK  100  A    between atoms: _269  and  _271
REMARK  101  A    between atoms: _271  and  _272
REMARK  102  A    between atoms: _271  and  _274
REMARK  103  A    between atoms: _274  and  _275
REMARK  104  A    between atoms: _285  and  _287
REMARK  105  A    between atoms: _287  and  _288
REMARK  106  A    between atoms: _287  and  _290
REMARK  107  A    between atoms: _290  and  _291
REMARK  108  A    between atoms: _296  and  _297
REMARK  109  A    between atoms: _299  and  _301
REMARK  110  A    between atoms: _301  and  _302
REMARK  111  A    between atoms: _301  and  _304
REMARK  112  A    between atoms: _304  and  _305
REMARK  113  A    between atoms: _305  and  _306
REMARK  114  A    between atoms: _306  and  _307
REMARK                            x       y       z     vdW  Elec       q    Type
REMARK                         _______ _______ _______ _____ _____    ______ ____
ROOT
ATOM      1  CA  LEU A   1      14.691  34.190  22.867  0.00  0.00    +0.133 C 
ENDROOT
BRANCH   1   2
ATOM      2  N   LEU A   1      15.335  33.812  24.123  0.00  0.00    -0.239 NA
ATOM      3  H   LEU A   1      15.326  34.483  24.918  0.00  0.00    +0.142 HD
ENDBRANCH   1   2
BRANCH   1   4
ATOM      4  C   LEU A   1      15.627  34.226  21.657  0.00  0.00    +0.224 C 
ATOM      5  O   LEU A   1      15.302  33.701  20.588  0.00  0.00    -0.287 OA
ENDBRANCH   1   4
BRANCH   1   6
ATOM      6  CB  LEU A   1      13.995  35.541  23.026  0.00  0.00    +0.025 C 
BRANCH   6   7
ATOM      7  CG  LEU A   1      13.120  35.990  21.859  0.00  0.00    +0.002 C 
ATOM      8  CD2 LEU A   1      12.498  37.334  22.195  0.00  0.00    +0.000 C 
ATOM      9  CD1 LEU A   1      12.040  34.956  21.580  0.00  0.00    +0.000 C 
ENDBRANCH   6   7
ENDBRANCH   1   6
TORSDOF 4
REMARK  Name = ../refined-set-2016/1ugp/1ugp_pocket.pdb
REMARK  114 active torsions:
REMARK  status: ('A' for Active; 'I' for Inactive)
REMARK    1  A    between atoms: _1  and  _3
REMARK    2  A    between atoms: _3  and  _4
REMARK    3  A    between atoms: _3  and  _6
REMARK    4  A    between atoms: _6  and  _7
REMARK    5  A    between atoms: _10  and  _12
REMARK    6  A    between atoms: _12  and  _13
REMARK    7  A    between atoms: _12  and  _15
REMARK    8  A    between atoms: _15  and  _16
REMARK    9  A    between atoms: _16  and  _17
REMARK   10  A    between atoms: _22  and  _24
REMARK   11  A    between atoms: _24  and  _25
REMARK   12  A    between atoms: _24  and  _27
REMARK   13  A    between atoms: _27  and  _28
REMARK   14  A    between atoms: _28  and  CO_316
REMARK   15  A    between atoms: _29  and  _31
REMARK   16  A    between atoms: _31  and  _32
REMARK   17  A    between atoms: _31  and  _34
REMARK   18  A    between atoms: _34  and  _35
REMARK   19  A    between atoms: _38  and  _40
REMARK   20  A    between atoms: _49  and  _52
REMARK   21  A    between atoms: _52  and  _53
REMARK   22  A    between atoms: _57  and  _60
REMARK   23  A    between atoms: _59  and  _62
REMARK   24  A    between atoms: _64  and  _66
REMARK   25  A    between atoms: _66  and  _67
REMARK   26  A    between atoms: _66  and  _69
REMARK   27  A    between atoms: _69  and  _70
REMARK   28  A    between atoms: _75  and  _76
REMARK   29  A    between atoms: _78  and  _80
REMARK   30  A    between atoms: _80  and  _81
REMARK   31  A    between atoms: _80  and  _83
REMARK   32  A    between atoms: _83  and  _84
REMARK   33  A    between atoms: _94  and  _96
REMARK   34  A    between atoms: _96  and  _97
REMARK   35  A    between atoms: _96  and  _99
REMARK   36  A    between atoms: _99  and  _100
REMARK   37  A    between atoms: _104  and  _105
REMARK   38  A    between atoms: _110  and  _112
REMARK   39  A    between atoms: _112  and  _113
REMARK   40  A    between atoms: _112  and  _115
REMARK   41  A    between atoms: _115  and  _116
REMARK   42  A    between atoms: _122  and  _124
REMARK   43  A    between atoms: _124  and  _125
REMARK   44  A    between atoms: _124  and  _127
REMARK   45  A    between atoms: _127  and  _128
REMARK   46  A    between atoms: _128  and  _129
REMARK   47  A    between atoms: _129  and  _130
REMARK   48  A    between atoms: _130  and  _131
REMARK   49  A    between atoms: _135  and  _137
REMARK   50  A    between atoms: _137  and  _138
REMARK   51  A    between atoms: _137  and  _140
REMARK   52  A    between atoms: _140  and  _141
REMARK   53  A    between atoms: _143  and  _145
REMARK   54  A    between atoms: _145  and  _146
REMARK   55  A    between atoms: _145  and  _148
REMARK   56  A    between atoms: _148  and  _149
REMARK   57  A    between atoms: _149  and  _150
REMARK   58  A    between atoms: _153  and  _155
REMARK   59  A    between atoms: _155  and  _156
REMARK   60  A    between atoms: _155  and  _158
REMARK   61  A    between atoms: _158  and  _159
REMARK   62  A    between atoms: _159  and  _160
REMARK   63  A    between atoms: _160  and  _161
REMARK   64  A    between atoms: _170  and  _172
REMARK   65  A    between atoms: _172  and  _173
REMARK   66  A    between atoms: _172  and  _175
REMARK   67  A    between atoms: _175  and  _176
REMARK   68  A    between atoms: _182  and  _184
REMARK   69  A    between atoms: _184  and  _185
REMARK   70  A    between atoms: _184  and  _187
REMARK   71  A    between atoms: _187  and  _188
REMARK   72  A    between atoms: _194  and  _196
REMARK   73  A    between atoms: _196  and  _197
REMARK   74  A    between atoms: _196  and  _199
REMARK   75  A    between atoms: _199  and  _200
REMARK   76  A    between atoms: _203  and  _205
REMARK   77  A    between atoms: _205  and  _206
REMARK   78  A    between atoms: _205  and  _208
REMARK   79  A    between atoms: _208  and  _209
REMARK   80  A    between atoms: _215  and  _217
REMARK   81  A    between atoms: _217  and  _218
REMARK   82  A    between atoms: _217  and  _220
REMARK   83  A    between atoms: _220  and  _221
REMARK   84  A    between atoms: _221  and  _222
REMARK   85  A    between atoms: _222  and  _223
REMARK   86  A    between atoms: _232  and  _234
REMARK   87  A    between atoms: _234  and  _235
REMARK   88  A    between atoms: _234  and  _237
REMARK   89  A    between atoms: _237  and  _238
REMARK   90  A    between atoms: _241  and  _243
REMARK   91  A    between atoms: _243  and  _244
REMARK   92  A    between atoms: _243  and  _246
REMARK   93  A    between atoms: _246  and  _247
REMARK   94  A    between atoms: _252  and  _253
REMARK   95  A    between atoms: _255  and  _257
REMARK   96  A    between atoms: _257  and  _258
REMARK   97  A    between atoms: _257  and  _260
REMARK   98  A    between atoms: _260  and  _261
REMARK   99  A    between atoms: _266  and  _267
REMARK  100  A    between atoms: _269  and  _271
REMARK  101  A    between atoms: _271  and  _272
REMARK  102  A    between atoms: _271  and  _274
REMARK  103  A    between atoms: _274  and  _275
REMARK  104  A    between atoms: _285  and  _287
REMARK  105  A    between atoms: _287  and  _288
REMARK  106  A    between atoms: _287  and  _290
REMARK  107  A    between atoms: _290  and  _291
REMARK  108  A    between atoms: _296  and  _297
REMARK  109  A    between atoms: _299  and  _301
REMARK  110  A    between atoms: _301  and  _302
REMARK  111  A    between atoms: _301  and  _304
REMARK  112  A    between atoms: _304  and  _305
REMARK  113  A    between atoms: _305  and  _306
REMARK  114  A    between atoms: _306  and  _307
REMARK                            x       y       z     vdW  Elec       q    Type
REMARK                         _______ _______ _______ _____ _____    ______ ____
ROOT
ATOM      1  CA  ARG A   2      15.725  32.148  16.811  0.00  0.00    +0.137 C 
ENDROOT
BRANCH   1   3
ATOM      2  C   PHE A   1      15.464  30.480  18.563  0.00  0.00    +0.239 C 
ATOM      3  N   ARG A   2      15.685  31.745  18.214  0.00  0.00    -0.298 N 
ATOM      4  H   ARG A   2      15.832  32.460  18.955  0.00  0.00    +0.150 HD
ATOM      5  O   PHE A   1      15.323  29.575  17.740  0.00  0.00    -0.274 OA
BRANCH   2   6
ATOM      6  CA  PHE A   1      15.452  30.183  20.063  0.00  0.00    +0.149 C 
BRANCH   6   7
ATOM      7  N   PHE A   1      16.629  30.807  20.675  0.00  0.00    -0.238 NA
ATOM      8  H   PHE A   1      16.486  31.465  21.467  0.00  0.00    +0.142 HD
ENDBRANCH   6   7
BRANCH   6   9
ATOM      9  CB  PHE A   1      14.179  30.741  20.724  0.00  0.00    +0.053 C 
BRANCH   9  10
ATOM     10  CG  PHE A   1      12.895  30.370  20.025  0.00  0.00    -0.020 A 
ATOM     11  CD2 PHE A   1      12.149  29.270  20.440  0.00  0.00    -0.004 A 
ATOM     12  CE2 PHE A   1      10.937  28.954  19.821  0.00  0.00    -0.000 A 
ATOM     13  CZ  PHE A   1      10.469  29.745  18.778  0.00  0.00    -0.000 A 
ATOM     14  CE1 PHE A   1      11.205  30.841  18.356  0.00  0.00    -0.000 A 
ATOM     15  CD1 PHE A   1      12.410  31.149  18.977  0.00  0.00    -0.004 A 
ENDBRANCH   9  10
ENDBRANCH   6   9
ENDBRANCH   2   6
ENDBRANCH   1   3
BRANCH   1  16
ATOM     16  C   ARG A   2      16.857  31.469  16.049  0.00  0.00    +0.227 C 
ATOM     17  O   ARG A   2      16.653  30.974  14.941  0.00  0.00    -0.286 OA
ENDBRANCH   1  16
BRANCH   1  18
ATOM     18  CB  ARG A   2      15.866  33.666  16.682  0.00  0.00    +0.031 C 
BRANCH  18  19
ATOM     19  CG  ARG A   2      14.690  34.447  17.240  0.00  0.00    +0.045 C 
BRANCH  19  20
ATOM     20  CD  ARG A   2      14.752  35.906  16.818  0.00  0.00    +0.174 C 
BRANCH  20  21
ATOM     21  NE  ARG A   2      13.547  36.626  17.224  0.00  0.00    -0.265 N 
ATOM     22  CZ  ARG A   2      13.484  37.451  18.265  0.00  0.00    +0.342 C 
ATOM     23  NH2 ARG A   2      14.560  37.675  19.012  0.00  0.00    -0.292 N 
ATOM     24 HH21 ARG A   2      14.503  38.321  19.825  0.00  0.00    +0.255 HD
ATOM     25 HH22 ARG A   2      15.459  37.204  18.784  0.00  0.00    +0.255 HD
ATOM     26  NH1 ARG A   2      12.333  38.032  18.575  0.00  0.00    -0.292 N 
ATOM     27 HH11 ARG A   2      12.279  38.678  19.388  0.00  0.00    +0.255 HD
ATOM     28 HH12 ARG A   2      11.484  37.842  18.005  0.00  0.00    +0.255 HD
ATOM     29  HE  ARG A   2      12.683  36.484  16.663  0.00  0.00    +0.259 HD
ENDBRANCH  20  21
ENDBRANCH  19  20
ENDBRANCH  18  19
ENDBRANCH   1  18
TORSDOF 10
REMARK  Name = ../refined-set-2016/1ugp/1ugp_pocket.pdb
REMARK  114 active torsions:
REMARK  status: ('A' for Active; 'I' for Inactive)
REMARK    1  A    between atoms: _1  and  _3
REMARK    2  A    between atoms: _3  and  _4
REMARK    3  A    between atoms: _3  and  _6
REMARK    4  A    between atoms: _6  and  _7
REMARK    5  A    between atoms: _10  and  _12
REMARK    6  A    between atoms: _12  and  _13
REMARK    7  A    between atoms: _12  and  _15
REMARK    8  A    between atoms: _15  and  _16
REMARK    9  A    between atoms: _16  and  _17
REMARK   10  A    between atoms: _22  and  _24
REMARK   11  A    between atoms: _24  and  _25
REMARK   12  A    between atoms: _24  and  _27
REMARK   13  A    between atoms: _27  and  _28
REMARK   14  A    between atoms: _28  and  CO_316
REMARK   15  A    between atoms: _29  and  _31
REMARK   16  A    between atoms: _31  and  _32
REMARK   17  A    between atoms: _31  and  _34
REMARK   18  A    between atoms: _34  and  _35
REMARK   19  A    between atoms: _38  and  _40
REMARK   20  A    between atoms: _49  and  _52
REMARK   21  A    between atoms: _52  and  _53
REMARK   22  A    between atoms: _57  and  _60
REMARK   23  A    between atoms: _59  and  _62
REMARK   24  A    between atoms: _64  and  _66
REMARK   25  A    between atoms: _66  and  _67
REMARK   26  A    between atoms: _66  and  _69
REMARK   27  A    between atoms: _69  and  _70
REMARK   28  A    between atoms: _75  and  _76
REMARK   29  A    between atoms: _78  and  _80
REMARK   30  A    between atoms: _80  and  _81
REMARK   31  A    between atoms: _80  and  _83
REMARK   32  A    between atoms: _83  and  _84
REMARK   33  A    between atoms: _94  and  _96
REMARK   34  A    between atoms: _96  and  _97
REMARK   35  A    between atoms: _96  and  _99
REMARK   36  A    between atoms: _99  and  _100
REMARK   37  A    between atoms: _104  and  _105
REMARK   38  A    between atoms: _110  and  _112
REMARK   39  A    between atoms: _112  and  _113
REMARK   40  A    between atoms: _112  and  _115
REMARK   41  A    between atoms: _115  and  _116
REMARK   42  A    between atoms: _122  and  _124
REMARK   43  A    between atoms: _124  and  _125
REMARK   44  A    between atoms: _124  and  _127
REMARK   45  A    between atoms: _127  and  _128
REMARK   46  A    between atoms: _128  and  _129
REMARK   47  A    between atoms: _129  and  _130
REMARK   48  A    between atoms: _130  and  _131
REMARK   49  A    between atoms: _135  and  _137
REMARK   50  A    between atoms: _137  and  _138
REMARK   51  A    between atoms: _137  and  _140
REMARK   52  A    between atoms: _140  and  _141
REMARK   53  A    between atoms: _143  and  _145
REMARK   54  A    between atoms: _145  and  _146
REMARK   55  A    between atoms: _145  and  _148
REMARK   56  A    between atoms: _148  and  _149
REMARK   57  A    between atoms: _149  and  _150
REMARK   58  A    between atoms: _153  and  _155
REMARK   59  A    between atoms: _155  and  _156
REMARK   60  A    between atoms: _155  and  _158
REMARK   61  A    between atoms: _158  and  _159
REMARK   62  A    between atoms: _159  and  _160
REMARK   63  A    between atoms: _160  and  _161
REMARK   64  A    between atoms: _170  and  _172
REMARK   65  A    between atoms: _172  and  _173
REMARK   66  A    between atoms: _172  and  _175
REMARK   67  A    between atoms: _175  and  _176
REMARK   68  A    between atoms: _182  and  _184
REMARK   69  A    between atoms: _184  and  _185
REMARK   70  A    between atoms: _184  and  _187
REMARK   71  A    between atoms: _187  and  _188
REMARK   72  A    between atoms: _194  and  _196
REMARK   73  A    between atoms: _196  and  _197
REMARK   74  A    between atoms: _196  and  _199
REMARK   75  A    between atoms: _199  and  _200
REMARK   76  A    between atoms: _203  and  _205
REMARK   77  A    between atoms: _205  and  _206
REMARK   78  A    between atoms: _205  and  _208
REMARK   79  A    between atoms: _208  and  _209
REMARK   80  A    between atoms: _215  and  _217
REMARK   81  A    between atoms: _217  and  _218
REMARK   82  A    between atoms: _217  and  _220
REMARK   83  A    between atoms: _220  and  _221
REMARK   84  A    between atoms: _221  and  _222
REMARK   85  A    between atoms: _222  and  _223
REMARK   86  A    between atoms: _232  and  _234
REMARK   87  A    between atoms: _234  and  _235
REMARK   88  A    between atoms: _234  and  _237
REMARK   89  A    between atoms: _237  and  _238
REMARK   90  A    between atoms: _241  and  _243
REMARK   91  A    between atoms: _243  and  _244
REMARK   92  A    between atoms: _243  and  _246
REMARK   93  A    between atoms: _246  and  _247
REMARK   94  A    between atoms: _252  and  _253
REMARK   95  A    between atoms: _255  and  _257
REMARK   96  A    between atoms: _257  and  _258
REMARK   97  A    between atoms: _257  and  _260
REMARK   98  A    between atoms: _260  and  _261
REMARK   99  A    between atoms: _266  and  _267
REMARK  100  A    between atoms: _269  and  _271
REMARK  101  A    between atoms: _271  and  _272
REMARK  102  A    between atoms: _271  and  _274
REMARK  103  A    between atoms: _274  and  _275
REMARK  104  A    between atoms: _285  and  _287
REMARK  105  A    between atoms: _287  and  _288
REMARK  106  A    between atoms: _287  and  _290
REMARK  107  A    between atoms: _290  and  _291
REMARK  108  A    between atoms: _296  and  _297
REMARK  109  A    between atoms: _299  and  _301
REMARK  110  A    between atoms: _301  and  _302
REMARK  111  A    between atoms: _301  and  _304
REMARK  112  A    between atoms: _304  and  _305
REMARK  113  A    between atoms: _305  and  _306
REMARK  114  A    between atoms: _306  and  _307
REMARK                            x       y       z     vdW  Elec       q    Type
REMARK                         _______ _______ _______ _____ _____    ______ ____
ROOT
ATOM      1  CA  ILE A   1      15.440  27.881  13.621  0.00  0.00    +0.133 C 
ENDROOT
BRANCH   1   2
ATOM      2  N   ILE A   1      16.281  27.929  14.820  0.00  0.00    -0.239 NA
ATOM      3  H   ILE A   1      16.132  28.696  15.507  0.00  0.00    +0.142 HD
ENDBRANCH   1   2
BRANCH   1   4
ATOM      4  CB  ILE A   1      14.241  28.852  13.750  0.00  0.00    +0.023 C 
ATOM      5  CG2 ILE A   1      13.482  28.957  12.428  0.00  0.00    +0.002 C 
BRANCH   4   6
ATOM      6  CG1 ILE A   1      13.318  28.383  14.878  0.00  0.00    +0.002 C 
ATOM      7  CD1 ILE A   1      12.135  29.301  15.143  0.00  0.00    +0.000 C 
ENDBRANCH   4   6
ENDBRANCH   1   4
BRANCH   1   8
ATOM      8  C   ILE A   1      16.263  28.233  12.384  0.00  0.00    +0.224 C 
ATOM      9  O   ILE A   1      16.107  27.622  11.328  0.00  0.00    -0.287 OA
ENDBRANCH   1   8
TORSDOF 4
REMARK  Name = ../refined-set-2016/1ugp/1ugp_pocket.pdb
REMARK  114 active torsions:
REMARK  status: ('A' for Active; 'I' for Inactive)
REMARK    1  A    between atoms: _1  and  _3
REMARK    2  A    between atoms: _3  and  _4
REMARK    3  A    between atoms: _3  and  _6
REMARK    4  A    between atoms: _6  and  _7
REMARK    5  A    between atoms: _10  and  _12
REMARK    6  A    between atoms: _12  and  _13
REMARK    7  A    between atoms: _12  and  _15
REMARK    8  A    between atoms: _15  and  _16
REMARK    9  A    between atoms: _16  and  _17
REMARK   10  A    between atoms: _22  and  _24
REMARK   11  A    between atoms: _24  and  _25
REMARK   12  A    between atoms: _24  and  _27
REMARK   13  A    between atoms: _27  and  _28
REMARK   14  A    between atoms: _28  and  CO_316
REMARK   15  A    between atoms: _29  and  _31
REMARK   16  A    between atoms: _31  and  _32
REMARK   17  A    between atoms: _31  and  _34
REMARK   18  A    between atoms: _34  and  _35
REMARK   19  A    between atoms: _38  and  _40
REMARK   20  A    between atoms: _49  and  _52
REMARK   21  A    between atoms: _52  and  _53
REMARK   22  A    between atoms: _57  and  _60
REMARK   23  A    between atoms: _59  and  _62
REMARK   24  A    between atoms: _64  and  _66
REMARK   25  A    between atoms: _66  and  _67
REMARK   26  A    between atoms: _66  and  _69
REMARK   27  A    between atoms: _69  and  _70
REMARK   28  A    between atoms: _75  and  _76
REMARK   29  A    between atoms: _78  and  _80
REMARK   30  A    between atoms: _80  and  _81
REMARK   31  A    between atoms: _80  and  _83
REMARK   32  A    between atoms: _83  and  _84
REMARK   33  A    between atoms: _94  and  _96
REMARK   34  A    between atoms: _96  and  _97
REMARK   35  A    between atoms: _96  and  _99
REMARK   36  A    between atoms: _99  and  _100
REMARK   37  A    between atoms: _104  and  _105
REMARK   38  A    between atoms: _110  and  _112
REMARK   39  A    between atoms: _112  and  _113
REMARK   40  A    between atoms: _112  and  _115
REMARK   41  A    between atoms: _115  and  _116
REMARK   42  A    between atoms: _122  and  _124
REMARK   43  A    between atoms: _124  and  _125
REMARK   44  A    between atoms: _124  and  _127
REMARK   45  A    between atoms: _127  and  _128
REMARK   46  A    between atoms: _128  and  _129
REMARK   47  A    between atoms: _129  and  _130
REMARK   48  A    between atoms: _130  and  _131
REMARK   49  A    between atoms: _135  and  _137
REMARK   50  A    between atoms: _137  and  _138
REMARK   51  A    between atoms: _137  and  _140
REMARK   52  A    between atoms: _140  and  _141
REMARK   53  A    between atoms: _143  and  _145
REMARK   54  A    between atoms: _145  and  _146
REMARK   55  A    between atoms: _145  and  _148
REMARK   56  A    between atoms: _148  and  _149
REMARK   57  A    between atoms: _149  and  _150
REMARK   58  A    between atoms: _153  and  _155
REMARK   59  A    between atoms: _155  and  _156
REMARK   60  A    between atoms: _155  and  _158
REMARK   61  A    between atoms: _158  and  _159
REMARK   62  A    between atoms: _159  and  _160
REMARK   63  A    between atoms: _160  and  _161
REMARK   64  A    between atoms: _170  and  _172
REMARK   65  A    between atoms: _172  and  _173
REMARK   66  A    between atoms: _172  and  _175
REMARK   67  A    between atoms: _175  and  _176
REMARK   68  A    between atoms: _182  and  _184
REMARK   69  A    between atoms: _184  and  _185
REMARK   70  A    between atoms: _184  and  _187
REMARK   71  A    between atoms: _187  and  _188
REMARK   72  A    between atoms: _194  and  _196
REMARK   73  A    between atoms: _196  and  _197
REMARK   74  A    between atoms: _196  and  _199
REMARK   75  A    between atoms: _199  and  _200
REMARK   76  A    between atoms: _203  and  _205
REMARK   77  A    between atoms: _205  and  _206
REMARK   78  A    between atoms: _205  and  _208
REMARK   79  A    between atoms: _208  and  _209
REMARK   80  A    between atoms: _215  and  _217
REMARK   81  A    between atoms: _217  and  _218
REMARK   82  A    between atoms: _217  and  _220
REMARK   83  A    between atoms: _220  and  _221
REMARK   84  A    between atoms: _221  and  _222
REMARK   85  A    between atoms: _222  and  _223
REMARK   86  A    between atoms: _232  and  _234
REMARK   87  A    between atoms: _234  and  _235
REMARK   88  A    between atoms: _234  and  _237
REMARK   89  A    between atoms: _237  and  _238
REMARK   90  A    between atoms: _241  and  _243
REMARK   91  A    between atoms: _243  and  _244
REMARK   92  A    between atoms: _243  and  _246
REMARK   93  A    between atoms: _246  and  _247
REMARK   94  A    between atoms: _252  and  _253
REMARK   95  A    between atoms: _255  and  _257
REMARK   96  A    between atoms: _257  and  _258
REMARK   97  A    between atoms: _257  and  _260
REMARK   98  A    between atoms: _260  and  _261
REMARK   99  A    between atoms: _266  and  _267
REMARK  100  A    between atoms: _269  and  _271
REMARK  101  A    between atoms: _271  and  _272
REMARK  102  A    between atoms: _271  and  _274
REMARK  103  A    between atoms: _274  and  _275
REMARK  104  A    between atoms: _285  and  _287
REMARK  105  A    between atoms: _287  and  _288
REMARK  106  A    between atoms: _287  and  _290
REMARK  107  A    between atoms: _290  and  _291
REMARK  108  A    between atoms: _296  and  _297
REMARK  109  A    between atoms: _299  and  _301
REMARK  110  A    between atoms: _301  and  _302
REMARK  111  A    between atoms: _301  and  _304
REMARK  112  A    between atoms: _304  and  _305
REMARK  113  A    between atoms: _305  and  _306
REMARK  114  A    between atoms: _306  and  _307
REMARK                            x       y       z     vdW  Elec       q    Type
REMARK                         _______ _______ _______ _____ _____    ______ ____
ROOT
ATOM      1  C   TYR A   1       5.847  26.649  12.250  0.00  0.00    +0.239 C 
ATOM      2  N   TYR A   2       4.909  26.062  12.990  0.00  0.00    -0.298 N 
ATOM      3  H   TYR A   2       3.932  25.999  12.639  0.00  0.00    +0.150 HD
ATOM      4  O   TYR A   1       7.018  26.753  12.625  0.00  0.00    -0.274 OA
ENDROOT
BRANCH   1   5
ATOM      5  CA  TYR A   1       5.413  27.246  10.915  0.00  0.00    +0.149 C 
BRANCH   5   6
ATOM      6  N   TYR A   1       4.728  26.350   9.987  0.00  0.00    -0.238 NA
ATOM      7  H   TYR A   1       3.899  26.705   9.469  0.00  0.00    +0.142 HD
ENDBRANCH   5   6
BRANCH   5   8
ATOM      8  CB  TYR A   1       4.555  28.485  11.186  0.00  0.00    +0.053 C 
BRANCH   8   9
ATOM      9  CG  TYR A   1       5.170  29.443  12.181  0.00  0.00    -0.020 A 
ATOM     10  CD2 TYR A   1       4.710  29.504  13.498  0.00  0.00    -0.001 A 
ATOM     11  CE2 TYR A   1       5.253  30.399  14.407  0.00  0.00    +0.036 A 
ATOM     12  CZ  TYR A   1       6.270  31.250  14.003  0.00  0.00    +0.134 A 
ATOM     13  CE1 TYR A   1       6.750  31.204  12.703  0.00  0.00    +0.036 A 
ATOM     14  CD1 TYR A   1       6.200  30.304  11.801  0.00  0.00    -0.001 A 
BRANCH  12  15
ATOM     15  OH  TYR A   1       6.783  32.166  14.891  0.00  0.00    -0.506 OA
ATOM     16  HH  TYR A   1       7.496  32.691  14.447  0.00  0.00    +0.292 HD
ENDBRANCH  12  15
ENDBRANCH   8   9
ENDBRANCH   5   8
ENDBRANCH   1   5
BRANCH   2  17
ATOM     17  CA  TYR A   2       5.253  25.508  14.291  0.00  0.00    +0.141 C 
BRANCH  17  18
ATOM     18  C   TYR A   2       6.267  24.373  14.277  0.00  0.00    +0.227 C 
ATOM     19  O   TYR A   2       6.848  24.045  15.313  0.00  0.00    -0.286 OA
ENDBRANCH  17  18
BRANCH  17  20
ATOM     20  CB  TYR A   2       4.001  25.170  15.101  0.00  0.00    +0.054 C 
BRANCH  20  21
ATOM     21  CG  TYR A   2       3.307  26.411  15.626  0.00  0.00    -0.020 A 
ATOM     22  CD2 TYR A   2       3.968  27.288  16.488  0.00  0.00    -0.001 A 
ATOM     23  CE2 TYR A   2       3.345  28.440  16.964  0.00  0.00    +0.036 A 
ATOM     24  CZ  TYR A   2       2.046  28.722  16.579  0.00  0.00    +0.134 A 
ATOM     25  CE1 TYR A   2       1.366  27.869  15.722  0.00  0.00    +0.036 A 
ATOM     26  CD1 TYR A   2       2.000  26.718  15.251  0.00  0.00    -0.001 A 
BRANCH  24  27
ATOM     27  OH  TYR A   2       1.417  29.844  17.068  0.00  0.00    -0.506 OA
ATOM     28  HH  TYR A   2       1.147  30.425  16.313  0.00  0.00    +0.292 HD
ENDBRANCH  24  27
ENDBRANCH  20  21
ENDBRANCH  17  20
ENDBRANCH   2  17
TORSDOF 10
REMARK  Name = ../refined-set-2016/1ugp/1ugp_pocket.pdb
REMARK  114 active torsions:
REMARK  status: ('A' for Active; 'I' for Inactive)
REMARK    1  A    between atoms: _1  and  _3
REMARK    2  A    between atoms: _3  and  _4
REMARK    3  A    between atoms: _3  and  _6
REMARK    4  A    between atoms: _6  and  _7
REMARK    5  A    between atoms: _10  and  _12
REMARK    6  A    between atoms: _12  and  _13
REMARK    7  A    between atoms: _12  and  _15
REMARK    8  A    between atoms: _15  and  _16
REMARK    9  A    between atoms: _16  and  _17
REMARK   10  A    between atoms: _22  and  _24
REMARK   11  A    between atoms: _24  and  _25
REMARK   12  A    between atoms: _24  and  _27
REMARK   13  A    between atoms: _27  and  _28
REMARK   14  A    between atoms: _28  and  CO_316
REMARK   15  A    between atoms: _29  and  _31
REMARK   16  A    between atoms: _31  and  _32
REMARK   17  A    between atoms: _31  and  _34
REMARK   18  A    between atoms: _34  and  _35
REMARK   19  A    between atoms: _38  and  _40
REMARK   20  A    between atoms: _49  and  _52
REMARK   21  A    between atoms: _52  and  _53
REMARK   22  A    between atoms: _57  and  _60
REMARK   23  A    between atoms: _59  and  _62
REMARK   24  A    between atoms: _64  and  _66
REMARK   25  A    between atoms: _66  and  _67
REMARK   26  A    between atoms: _66  and  _69
REMARK   27  A    between atoms: _69  and  _70
REMARK   28  A    between atoms: _75  and  _76
REMARK   29  A    between atoms: _78  and  _80
REMARK   30  A    between atoms: _80  and  _81
REMARK   31  A    between atoms: _80  and  _83
REMARK   32  A    between atoms: _83  and  _84
REMARK   33  A    between atoms: _94  and  _96
REMARK   34  A    between atoms: _96  and  _97
REMARK   35  A    between atoms: _96  and  _99
REMARK   36  A    between atoms: _99  and  _100
REMARK   37  A    between atoms: _104  and  _105
REMARK   38  A    between atoms: _110  and  _112
REMARK   39  A    between atoms: _112  and  _113
REMARK   40  A    between atoms: _112  and  _115
REMARK   41  A    between atoms: _115  and  _116
REMARK   42  A    between atoms: _122  and  _124
REMARK   43  A    between atoms: _124  and  _125
REMARK   44  A    between atoms: _124  and  _127
REMARK   45  A    between atoms: _127  and  _128
REMARK   46  A    between atoms: _128  and  _129
REMARK   47  A    between atoms: _129  and  _130
REMARK   48  A    between atoms: _130  and  _131
REMARK   49  A    between atoms: _135  and  _137
REMARK   50  A    between atoms: _137  and  _138
REMARK   51  A    between atoms: _137  and  _140
REMARK   52  A    between atoms: _140  and  _141
REMARK   53  A    between atoms: _143  and  _145
REMARK   54  A    between atoms: _145  and  _146
REMARK   55  A    between atoms: _145  and  _148
REMARK   56  A    between atoms: _148  and  _149
REMARK   57  A    between atoms: _149  and  _150
REMARK   58  A    between atoms: _153  and  _155
REMARK   59  A    between atoms: _155  and  _156
REMARK   60  A    between atoms: _155  and  _158
REMARK   61  A    between atoms: _158  and  _159
REMARK   62  A    between atoms: _159  and  _160
REMARK   63  A    between atoms: _160  and  _161
REMARK   64  A    between atoms: _170  and  _172
REMARK   65  A    between atoms: _172  and  _173
REMARK   66  A    between atoms: _172  and  _175
REMARK   67  A    between atoms: _175  and  _176
REMARK   68  A    between atoms: _182  and  _184
REMARK   69  A    between atoms: _184  and  _185
REMARK   70  A    between atoms: _184  and  _187
REMARK   71  A    between atoms: _187  and  _188
REMARK   72  A    between atoms: _194  and  _196
REMARK   73  A    between atoms: _196  and  _197
REMARK   74  A    between atoms: _196  and  _199
REMARK   75  A    between atoms: _199  and  _200
REMARK   76  A    between atoms: _203  and  _205
REMARK   77  A    between atoms: _205  and  _206
REMARK   78  A    between atoms: _205  and  _208
REMARK   79  A    between atoms: _208  and  _209
REMARK   80  A    between atoms: _215  and  _217
REMARK   81  A    between atoms: _217  and  _218
REMARK   82  A    between atoms: _217  and  _220
REMARK   83  A    between atoms: _220  and  _221
REMARK   84  A    between atoms: _221  and  _222
REMARK   85  A    between atoms: _222  and  _223
REMARK   86  A    between atoms: _232  and  _234
REMARK   87  A    between atoms: _234  and  _235
REMARK   88  A    between atoms: _234  and  _237
REMARK   89  A    between atoms: _237  and  _238
REMARK   90  A    between atoms: _241  and  _243
REMARK   91  A    between atoms: _243  and  _244
REMARK   92  A    between atoms: _243  and  _246
REMARK   93  A    between atoms: _246  and  _247
REMARK   94  A    between atoms: _252  and  _253
REMARK   95  A    between atoms: _255  and  _257
REMARK   96  A    between atoms: _257  and  _258
REMARK   97  A    between atoms: _257  and  _260
REMARK   98  A    between atoms: _260  and  _261
REMARK   99  A    between atoms: _266  and  _267
REMARK  100  A    between atoms: _269  and  _271
REMARK  101  A    between atoms: _271  and  _272
REMARK  102  A    between atoms: _271  and  _274
REMARK  103  A    between atoms: _274  and  _275
REMARK  104  A    between atoms: _285  and  _287
REMARK  105  A    between atoms: _287  and  _288
REMARK  106  A    between atoms: _287  and  _290
REMARK  107  A    between atoms: _290  and  _291
REMARK  108  A    between atoms: _296  and  _297
REMARK  109  A    between atoms: _299  and  _301
REMARK  110  A    between atoms: _301  and  _302
REMARK  111  A    between atoms: _301  and  _304
REMARK  112  A    between atoms: _304  and  _305
REMARK  113  A    between atoms: _305  and  _306
REMARK  114  A    between atoms: _306  and  _307
REMARK                            x       y       z     vdW  Elec       q    Type
REMARK                         _______ _______ _______ _____ _____    ______ ____
ROOT
ATOM      1  CG  TRP A   1       8.022  27.609  17.200  0.00  0.00    -0.002 A 
ATOM      2  CD2 TRP A   1       7.201  28.460  18.012  0.00  0.00    +0.013 A 
ATOM      3  CE3 TRP A   1       6.467  28.267  19.189  0.00  0.00    +0.001 A 
ATOM      4  CZ3 TRP A   1       5.765  29.347  19.726  0.00  0.00    +0.000 A 
ATOM      5  CH2 TRP A   1       5.787  30.610  19.103  0.00  0.00    +0.001 A 
ATOM      6  CZ2 TRP A   1       6.499  30.824  17.948  0.00  0.00    +0.017 A 
ATOM      7  CE2 TRP A   1       7.203  29.740  17.412  0.00  0.00    +0.056 A 
ATOM      8  NE1 TRP A   1       7.987  29.667  16.291  0.00  0.00    -0.352 N 
ATOM      9  HE1 TRP A   1       8.182  30.453  15.638  0.00  0.00    +0.166 HD
ATOM     10  CD1 TRP A   1       8.474  28.387  16.168  0.00  0.00    +0.068 A 
ENDROOT
BRANCH   1  11
ATOM     11  CB  TRP A   1       8.347  26.153  17.454  0.00  0.00    +0.053 C 
BRANCH  11  12
ATOM     12  CA  TRP A   1       9.661  25.703  16.806  0.00  0.00    +0.137 C 
BRANCH  12  13
ATOM     13  N   TRP A   1       9.526  25.639  15.362  0.00  0.00    -0.239 NA
ATOM     14  H   TRP A   1       8.588  25.772  14.933  0.00  0.00    +0.142 HD
ENDBRANCH  12  13
BRANCH  12  15
ATOM     15  C   TRP A   1      10.118  24.356  17.355  0.00  0.00    +0.224 C 
ATOM     16  O   TRP A   1      11.027  24.295  18.179  0.00  0.00    -0.287 OA
ENDBRANCH  12  15
ENDBRANCH  11  12
ENDBRANCH   1  11
TORSDOF 4
REMARK  Name = ../refined-set-2016/1ugp/1ugp_pocket.pdb
REMARK  114 active torsions:
REMARK  status: ('A' for Active; 'I' for Inactive)
REMARK    1  A    between atoms: _1  and  _3
REMARK    2  A    between atoms: _3  and  _4
REMARK    3  A    between atoms: _3  and  _6
REMARK    4  A    between atoms: _6  and  _7
REMARK    5  A    between atoms: _10  and  _12
REMARK    6  A    between atoms: _12  and  _13
REMARK    7  A    between atoms: _12  and  _15
REMARK    8  A    between atoms: _15  and  _16
REMARK    9  A    between atoms: _16  and  _17
REMARK   10  A    between atoms: _22  and  _24
REMARK   11  A    between atoms: _24  and  _25
REMARK   12  A    between atoms: _24  and  _27
REMARK   13  A    between atoms: _27  and  _28
REMARK   14  A    between atoms: _28  and  CO_316
REMARK   15  A    between atoms: _29  and  _31
REMARK   16  A    between atoms: _31  and  _32
REMARK   17  A    between atoms: _31  and  _34
REMARK   18  A    between atoms: _34  and  _35
REMARK   19  A    between atoms: _38  and  _40
REMARK   20  A    between atoms: _49  and  _52
REMARK   21  A    between atoms: _52  and  _53
REMARK   22  A    between atoms: _57  and  _60
REMARK   23  A    between atoms: _59  and  _62
REMARK   24  A    between atoms: _64  and  _66
REMARK   25  A    between atoms: _66  and  _67
REMARK   26  A    between atoms: _66  and  _69
REMARK   27  A    between atoms: _69  and  _70
REMARK   28  A    between atoms: _75  and  _76
REMARK   29  A    between atoms: _78  and  _80
REMARK   30  A    between atoms: _80  and  _81
REMARK   31  A    between atoms: _80  and  _83
REMARK   32  A    between atoms: _83  and  _84
REMARK   33  A    between atoms: _94  and  _96
REMARK   34  A    between atoms: _96  and  _97
REMARK   35  A    between atoms: _96  and  _99
REMARK   36  A    between atoms: _99  and  _100
REMARK   37  A    between atoms: _104  and  _105
REMARK   38  A    between atoms: _110  and  _112
REMARK   39  A    between atoms: _112  and  _113
REMARK   40  A    between atoms: _112  and  _115
REMARK   41  A    between atoms: _115  and  _116
REMARK   42  A    between atoms: _122  and  _124
REMARK   43  A    between atoms: _124  and  _125
REMARK   44  A    between atoms: _124  and  _127
REMARK   45  A    between atoms: _127  and  _128
REMARK   46  A    between atoms: _128  and  _129
REMARK   47  A    between atoms: _129  and  _130
REMARK   48  A    between atoms: _130  and  _131
REMARK   49  A    between atoms: _135  and  _137
REMARK   50  A    between atoms: _137  and  _138
REMARK   51  A    between atoms: _137  and  _140
REMARK   52  A    between atoms: _140  and  _141
REMARK   53  A    between atoms: _143  and  _145
REMARK   54  A    between atoms: _145  and  _146
REMARK   55  A    between atoms: _145  and  _148
REMARK   56  A    between atoms: _148  and  _149
REMARK   57  A    between atoms: _149  and  _150
REMARK   58  A    between atoms: _153  and  _155
REMARK   59  A    between atoms: _155  and  _156
REMARK   60  A    between atoms: _155  and  _158
REMARK   61  A    between atoms: _158  and  _159
REMARK   62  A    between atoms: _159  and  _160
REMARK   63  A    between atoms: _160  and  _161
REMARK   64  A    between atoms: _170  and  _172
REMARK   65  A    between atoms: _172  and  _173
REMARK   66  A    between atoms: _172  and  _175
REMARK   67  A    between atoms: _175  and  _176
REMARK   68  A    between atoms: _182  and  _184
REMARK   69  A    between atoms: _184  and  _185
REMARK   70  A    between atoms: _184  and  _187
REMARK   71  A    between atoms: _187  and  _188
REMARK   72  A    between atoms: _194  and  _196
REMARK   73  A    between atoms: _196  and  _197
REMARK   74  A    between atoms: _196  and  _199
REMARK   75  A    between atoms: _199  and  _200
REMARK   76  A    between atoms: _203  and  _205
REMARK   77  A    between atoms: _205  and  _206
REMARK   78  A    between atoms: _205  and  _208
REMARK   79  A    between atoms: _208  and  _209
REMARK   80  A    between atoms: _215  and  _217
REMARK   81  A    between atoms: _217  and  _218
REMARK   82  A    between atoms: _217  and  _220
REMARK   83  A    between atoms: _220  and  _221
REMARK   84  A    between atoms: _221  and  _222
REMARK   85  A    between atoms: _222  and  _223
REMARK   86  A    between atoms: _232  and  _234
REMARK   87  A    between atoms: _234  and  _235
REMARK   88  A    between atoms: _234  and  _237
REMARK   89  A    between atoms: _237  and  _238
REMARK   90  A    between atoms: _241  and  _243
REMARK   91  A    between atoms: _243  and  _244
REMARK   92  A    between atoms: _243  and  _246
REMARK   93  A    between atoms: _246  and  _247
REMARK   94  A    between atoms: _252  and  _253
REMARK   95  A    between atoms: _255  and  _257
REMARK   96  A    between atoms: _257  and  _258
REMARK   97  A    between atoms: _257  and  _260
REMARK   98  A    between atoms: _260  and  _261
REMARK   99  A    between atoms: _266  and  _267
REMARK  100  A    between atoms: _269  and  _271
REMARK  101  A    between atoms: _271  and  _272
REMARK  102  A    between atoms: _271  and  _274
REMARK  103  A    between atoms: _274  and  _275
REMARK  104  A    between atoms: _285  and  _287
REMARK  105  A    between atoms: _287  and  _288
REMARK  106  A    between atoms: _287  and  _290
REMARK  107  A    between atoms: _290  and  _291
REMARK  108  A    between atoms: _296  and  _297
REMARK  109  A    between atoms: _299  and  _301
REMARK  110  A    between atoms: _301  and  _302
REMARK  111  A    between atoms: _301  and  _304
REMARK  112  A    between atoms: _304  and  _305
REMARK  113  A    between atoms: _305  and  _306
REMARK  114  A    between atoms: _306  and  _307
REMARK                            x       y       z     vdW  Elec       q    Type
REMARK                         _______ _______ _______ _____ _____    ______ ____
ROOT
ATOM      1  CG  TYR A   1      11.004  23.294  21.218  0.00  0.00    -0.020 A 
ATOM      2  CD2 TYR A   1      11.260  24.584  21.687  0.00  0.00    -0.001 A 
ATOM      3  CE2 TYR A   1      10.263  25.561  21.679  0.00  0.00    +0.036 A 
ATOM      4  CZ  TYR A   1       9.003  25.241  21.197  0.00  0.00    +0.134 A 
ATOM      5  CE1 TYR A   1       8.730  23.966  20.728  0.00  0.00    +0.036 A 
ATOM      6  CD1 TYR A   1       9.727  23.004  20.743  0.00  0.00    -0.001 A 
ENDROOT
BRANCH   4   7
ATOM      7  OH  TYR A   1       8.007  26.186  21.177  0.00  0.00    -0.506 OA
ATOM      8  HH  TYR A   1       7.182  25.786  20.804  0.00  0.00    +0.292 HD
ENDBRANCH   4   7
BRANCH   1   9
ATOM      9  CB  TYR A   1      12.077  22.231  21.220  0.00  0.00    +0.051 C 
BRANCH   9  10
ATOM     10  CA  TYR A   1      13.493  22.726  20.911  0.00  0.00    +0.137 C 
BRANCH  10  11
ATOM     11  N   TYR A   1      13.568  23.364  19.593  0.00  0.00    -0.239 NA
ATOM     12  H   TYR A   1      12.739  23.343  18.965  0.00  0.00    +0.142 HD
ENDBRANCH  10  11
BRANCH  10  13
ATOM     13  C   TYR A   1      14.435  21.531  20.940  0.00  0.00    +0.224 C 
ATOM     14  O   TYR A   1      15.151  21.317  21.917  0.00  0.00    -0.287 OA
ENDBRANCH  10  13
ENDBRANCH   9  10
ENDBRANCH   1   9
TORSDOF 5
REMARK  Name = ../refined-set-2016/1ugp/1ugp_pocket.pdb
REMARK  114 active torsions:
REMARK  status: ('A' for Active; 'I' for Inactive)
REMARK    1  A    between atoms: _1  and  _3
REMARK    2  A    between atoms: _3  and  _4
REMARK    3  A    between atoms: _3  and  _6
REMARK    4  A    between atoms: _6  and  _7
REMARK    5  A    between atoms: _10  and  _12
REMARK    6  A    between atoms: _12  and  _13
REMARK    7  A    between atoms: _12  and  _15
REMARK    8  A    between atoms: _15  and  _16
REMARK    9  A    between atoms: _16  and  _17
REMARK   10  A    between atoms: _22  and  _24
REMARK   11  A    between atoms: _24  and  _25
REMARK   12  A    between atoms: _24  and  _27
REMARK   13  A    between atoms: _27  and  _28
REMARK   14  A    between atoms: _28  and  CO_316
REMARK   15  A    between atoms: _29  and  _31
REMARK   16  A    between atoms: _31  and  _32
REMARK   17  A    between atoms: _31  and  _34
REMARK   18  A    between atoms: _34  and  _35
REMARK   19  A    between atoms: _38  and  _40
REMARK   20  A    between atoms: _49  and  _52
REMARK   21  A    between atoms: _52  and  _53
REMARK   22  A    between atoms: _57  and  _60
REMARK   23  A    between atoms: _59  and  _62
REMARK   24  A    between atoms: _64  and  _66
REMARK   25  A    between atoms: _66  and  _67
REMARK   26  A    between atoms: _66  and  _69
REMARK   27  A    between atoms: _69  and  _70
REMARK   28  A    between atoms: _75  and  _76
REMARK   29  A    between atoms: _78  and  _80
REMARK   30  A    between atoms: _80  and  _81
REMARK   31  A    between atoms: _80  and  _83
REMARK   32  A    between atoms: _83  and  _84
REMARK   33  A    between atoms: _94  and  _96
REMARK   34  A    between atoms: _96  and  _97
REMARK   35  A    between atoms: _96  and  _99
REMARK   36  A    between atoms: _99  and  _100
REMARK   37  A    between atoms: _104  and  _105
REMARK   38  A    between atoms: _110  and  _112
REMARK   39  A    between atoms: _112  and  _113
REMARK   40  A    between atoms: _112  and  _115
REMARK   41  A    between atoms: _115  and  _116
REMARK   42  A    between atoms: _122  and  _124
REMARK   43  A    between atoms: _124  and  _125
REMARK   44  A    between atoms: _124  and  _127
REMARK   45  A    between atoms: _127  and  _128
REMARK   46  A    between atoms: _128  and  _129
REMARK   47  A    between atoms: _129  and  _130
REMARK   48  A    between atoms: _130  and  _131
REMARK   49  A    between atoms: _135  and  _137
REMARK   50  A    between atoms: _137  and  _138
REMARK   51  A    between atoms: _137  and  _140
REMARK   52  A    between atoms: _140  and  _141
REMARK   53  A    between atoms: _143  and  _145
REMARK   54  A    between atoms: _145  and  _146
REMARK   55  A    between atoms: _145  and  _148
REMARK   56  A    between atoms: _148  and  _149
REMARK   57  A    between atoms: _149  and  _150
REMARK   58  A    between atoms: _153  and  _155
REMARK   59  A    between atoms: _155  and  _156
REMARK   60  A    between atoms: _155  and  _158
REMARK   61  A    between atoms: _158  and  _159
REMARK   62  A    between atoms: _159  and  _160
REMARK   63  A    between atoms: _160  and  _161
REMARK   64  A    between atoms: _170  and  _172
REMARK   65  A    between atoms: _172  and  _173
REMARK   66  A    between atoms: _172  and  _175
REMARK   67  A    between atoms: _175  and  _176
REMARK   68  A    between atoms: _182  and  _184
REMARK   69  A    between atoms: _184  and  _185
REMARK   70  A    between atoms: _184  and  _187
REMARK   71  A    between atoms: _187  and  _188
REMARK   72  A    between atoms: _194  and  _196
REMARK   73  A    between atoms: _196  and  _197
REMARK   74  A    between atoms: _196  and  _199
REMARK   75  A    between atoms: _199  and  _200
REMARK   76  A    between atoms: _203  and  _205
REMARK   77  A    between atoms: _205  and  _206
REMARK   78  A    between atoms: _205  and  _208
REMARK   79  A    between atoms: _208  and  _209
REMARK   80  A    between atoms: _215  and  _217
REMARK   81  A    between atoms: _217  and  _218
REMARK   82  A    between atoms: _217  and  _220
REMARK   83  A    between atoms: _220  and  _221
REMARK   84  A    between atoms: _221  and  _222
REMARK   85  A    between atoms: _222  and  _223
REMARK   86  A    between atoms: _232  and  _234
REMARK   87  A    between atoms: _234  and  _235
REMARK   88  A    between atoms: _234  and  _237
REMARK   89  A    between atoms: _237  and  _238
REMARK   90  A    between atoms: _241  and  _243
REMARK   91  A    between atoms: _243  and  _244
REMARK   92  A    between atoms: _243  and  _246
REMARK   93  A    between atoms: _246  and  _247
REMARK   94  A    between atoms: _252  and  _253
REMARK   95  A    between atoms: _255  and  _257
REMARK   96  A    between atoms: _257  and  _258
REMARK   97  A    between atoms: _257  and  _260
REMARK   98  A    between atoms: _260  and  _261
REMARK   99  A    between atoms: _266  and  _267
REMARK  100  A    between atoms: _269  and  _271
REMARK  101  A    between atoms: _271  and  _272
REMARK  102  A    between atoms: _271  and  _274
REMARK  103  A    between atoms: _274  and  _275
REMARK  104  A    between atoms: _285  and  _287
REMARK  105  A    between atoms: _287  and  _288
REMARK  106  A    between atoms: _287  and  _290
REMARK  107  A    between atoms: _290  and  _291
REMARK  108  A    between atoms: _296  and  _297
REMARK  109  A    between atoms: _299  and  _301
REMARK  110  A    between atoms: _301  and  _302
REMARK  111  A    between atoms: _301  and  _304
REMARK  112  A    between atoms: _304  and  _305
REMARK  113  A    between atoms: _305  and  _306
REMARK  114  A    between atoms: _306  and  _307
REMARK                            x       y       z     vdW  Elec       q    Type
REMARK                         _______ _______ _______ _____ _____    ______ ____
ROOT
ATOM      1  NE  ARG A   1      16.474  39.577  14.785  0.00  0.00    -0.265 N 
ATOM      2  HE  ARG A   1      16.286  40.567  15.040  0.00  0.00    +0.259 HD
ATOM      3  CZ  ARG A   1      15.474  38.864  14.275  0.00  0.00    +0.342 C 
ATOM      4  NH2 ARG A   1      14.266  39.401  14.158  0.00  0.00    -0.292 N 
ATOM      5 HH21 ARG A   1      14.100  40.381  14.465  0.00  0.00    +0.255 HD
ATOM      6 HH22 ARG A   1      13.485  38.842  13.759  0.00  0.00    +0.255 HD
ATOM      7  NH1 ARG A   1      15.670  37.599  13.921  0.00  0.00    -0.292 N 
ATOM      8 HH11 ARG A   1      16.607  37.164  14.042  0.00  0.00    +0.255 HD
ATOM      9 HH12 ARG A   1      14.887  37.043  13.522  0.00  0.00    +0.255 HD
ENDROOT
BRANCH   1  10
ATOM     10  CD  ARG A   1      17.821  39.055  15.009  0.00  0.00    +0.174 C 
BRANCH  10  11
ATOM     11  CG  ARG A   1      18.776  40.125  15.509  0.00  0.00    +0.045 C 
BRANCH  11  12
ATOM     12  CB  ARG A   1      19.235  41.043  14.377  0.00  0.00    +0.029 C 
BRANCH  12  13
ATOM     13  CA  ARG A   1      20.115  40.355  13.323  0.00  0.00    +0.133 C 
BRANCH  13  14
ATOM     14  N   ARG A   1      21.311  39.781  13.948  0.00  0.00    -0.239 NA
ATOM     15  H   ARG A   1      21.938  40.401  14.499  0.00  0.00    +0.142 HD
ENDBRANCH  13  14
BRANCH  13  16
ATOM     16  C   ARG A   1      20.601  41.351  12.272  0.00  0.00    +0.224 C 
ATOM     17  O   ARG A   1      20.251  42.536  12.288  0.00  0.00    -0.287 OA
ENDBRANCH  13  16
ENDBRANCH  12  13
ENDBRANCH  11  12
ENDBRANCH  10  11
ENDBRANCH   1  10
TORSDOF 6
REMARK  Name = ../refined-set-2016/1ugp/1ugp_pocket.pdb
REMARK  114 active torsions:
REMARK  status: ('A' for Active; 'I' for Inactive)
REMARK    1  A    between atoms: _1  and  _3
REMARK    2  A    between atoms: _3  and  _4
REMARK    3  A    between atoms: _3  and  _6
REMARK    4  A    between atoms: _6  and  _7
REMARK    5  A    between atoms: _10  and  _12
REMARK    6  A    between atoms: _12  and  _13
REMARK    7  A    between atoms: _12  and  _15
REMARK    8  A    between atoms: _15  and  _16
REMARK    9  A    between atoms: _16  and  _17
REMARK   10  A    between atoms: _22  and  _24
REMARK   11  A    between atoms: _24  and  _25
REMARK   12  A    between atoms: _24  and  _27
REMARK   13  A    between atoms: _27  and  _28
REMARK   14  A    between atoms: _28  and  CO_316
REMARK   15  A    between atoms: _29  and  _31
REMARK   16  A    between atoms: _31  and  _32
REMARK   17  A    between atoms: _31  and  _34
REMARK   18  A    between atoms: _34  and  _35
REMARK   19  A    between atoms: _38  and  _40
REMARK   20  A    between atoms: _49  and  _52
REMARK   21  A    between atoms: _52  and  _53
REMARK   22  A    between atoms: _57  and  _60
REMARK   23  A    between atoms: _59  and  _62
REMARK   24  A    between atoms: _64  and  _66
REMARK   25  A    between atoms: _66  and  _67
REMARK   26  A    between atoms: _66  and  _69
REMARK   27  A    between atoms: _69  and  _70
REMARK   28  A    between atoms: _75  and  _76
REMARK   29  A    between atoms: _78  and  _80
REMARK   30  A    between atoms: _80  and  _81
REMARK   31  A    between atoms: _80  and  _83
REMARK   32  A    between atoms: _83  and  _84
REMARK   33  A    between atoms: _94  and  _96
REMARK   34  A    between atoms: _96  and  _97
REMARK   35  A    between atoms: _96  and  _99
REMARK   36  A    between atoms: _99  and  _100
REMARK   37  A    between atoms: _104  and  _105
REMARK   38  A    between atoms: _110  and  _112
REMARK   39  A    between atoms: _112  and  _113
REMARK   40  A    between atoms: _112  and  _115
REMARK   41  A    between atoms: _115  and  _116
REMARK   42  A    between atoms: _122  and  _124
REMARK   43  A    between atoms: _124  and  _125
REMARK   44  A    between atoms: _124  and  _127
REMARK   45  A    between atoms: _127  and  _128
REMARK   46  A    between atoms: _128  and  _129
REMARK   47  A    between atoms: _129  and  _130
REMARK   48  A    between atoms: _130  and  _131
REMARK   49  A    between atoms: _135  and  _137
REMARK   50  A    between atoms: _137  and  _138
REMARK   51  A    between atoms: _137  and  _140
REMARK   52  A    between atoms: _140  and  _141
REMARK   53  A    between atoms: _143  and  _145
REMARK   54  A    between atoms: _145  and  _146
REMARK   55  A    between atoms: _145  and  _148
REMARK   56  A    between atoms: _148  and  _149
REMARK   57  A    between atoms: _149  and  _150
REMARK   58  A    between atoms: _153  and  _155
REMARK   59  A    between atoms: _155  and  _156
REMARK   60  A    between atoms: _155  and  _158
REMARK   61  A    between atoms: _158  and  _159
REMARK   62  A    between atoms: _159  and  _160
REMARK   63  A    between atoms: _160  and  _161
REMARK   64  A    between atoms: _170  and  _172
REMARK   65  A    between atoms: _172  and  _173
REMARK   66  A    between atoms: _172  and  _175
REMARK   67  A    between atoms: _175  and  _176
REMARK   68  A    between atoms: _182  and  _184
REMARK   69  A    between atoms: _184  and  _185
REMARK   70  A    between atoms: _184  and  _187
REMARK   71  A    between atoms: _187  and  _188
REMARK   72  A    between atoms: _194  and  _196
REMARK   73  A    between atoms: _196  and  _197
REMARK   74  A    between atoms: _196  and  _199
REMARK   75  A    between atoms: _199  and  _200
REMARK   76  A    between atoms: _203  and  _205
REMARK   77  A    between atoms: _205  and  _206
REMARK   78  A    between atoms: _205  and  _208
REMARK   79  A    between atoms: _208  and  _209
REMARK   80  A    between atoms: _215  and  _217
REMARK   81  A    between atoms: _217  and  _218
REMARK   82  A    between atoms: _217  and  _220
REMARK   83  A    between atoms: _220  and  _221
REMARK   84  A    between atoms: _221  and  _222
REMARK   85  A    between atoms: _222  and  _223
REMARK   86  A    between atoms: _232  and  _234
REMARK   87  A    between atoms: _234  and  _235
REMARK   88  A    between atoms: _234  and  _237
REMARK   89  A    between atoms: _237  and  _238
REMARK   90  A    between atoms: _241  and  _243
REMARK   91  A    between atoms: _243  and  _244
REMARK   92  A    between atoms: _243  and  _246
REMARK   93  A    between atoms: _246  and  _247
REMARK   94  A    between atoms: _252  and  _253
REMARK   95  A    between atoms: _255  and  _257
REMARK   96  A    between atoms: _257  and  _258
REMARK   97  A    between atoms: _257  and  _260
REMARK   98  A    between atoms: _260  and  _261
REMARK   99  A    between atoms: _266  and  _267
REMARK  100  A    between atoms: _269  and  _271
REMARK  101  A    between atoms: _271  and  _272
REMARK  102  A    between atoms: _271  and  _274
REMARK  103  A    between atoms: _274  and  _275
REMARK  104  A    between atoms: _285  and  _287
REMARK  105  A    between atoms: _287  and  _288
REMARK  106  A    between atoms: _287  and  _290
REMARK  107  A    between atoms: _290  and  _291
REMARK  108  A    between atoms: _296  and  _297
REMARK  109  A    between atoms: _299  and  _301
REMARK  110  A    between atoms: _301  and  _302
REMARK  111  A    between atoms: _301  and  _304
REMARK  112  A    between atoms: _304  and  _305
REMARK  113  A    between atoms: _305  and  _306
REMARK  114  A    between atoms: _306  and  _307
REMARK                            x       y       z     vdW  Elec       q    Type
REMARK                         _______ _______ _______ _____ _____    ______ ____
ROOT
ATOM      1  O   HOH     1      13.188  40.905  10.960  0.00  0.00    +0.000 OA
ENDROOT
TORSDOF 0
REMARK  Name = ../refined-set-2016/1ugp/1ugp_pocket.pdb
REMARK  114 active torsions:
REMARK  status: ('A' for Active; 'I' for Inactive)
REMARK    1  A    between atoms: _1  and  _3
REMARK    2  A    between atoms: _3  and  _4
REMARK    3  A    between atoms: _3  and  _6
REMARK    4  A    between atoms: _6  and  _7
REMARK    5  A    between atoms: _10  and  _12
REMARK    6  A    between atoms: _12  and  _13
REMARK    7  A    between atoms: _12  and  _15
REMARK    8  A    between atoms: _15  and  _16
REMARK    9  A    between atoms: _16  and  _17
REMARK   10  A    between atoms: _22  and  _24
REMARK   11  A    between atoms: _24  and  _25
REMARK   12  A    between atoms: _24  and  _27
REMARK   13  A    between atoms: _27  and  _28
REMARK   14  A    between atoms: _28  and  CO_316
REMARK   15  A    between atoms: _29  and  _31
REMARK   16  A    between atoms: _31  and  _32
REMARK   17  A    between atoms: _31  and  _34
REMARK   18  A    between atoms: _34  and  _35
REMARK   19  A    between atoms: _38  and  _40
REMARK   20  A    between atoms: _49  and  _52
REMARK   21  A    between atoms: _52  and  _53
REMARK   22  A    between atoms: _57  and  _60
REMARK   23  A    between atoms: _59  and  _62
REMARK   24  A    between atoms: _64  and  _66
REMARK   25  A    between atoms: _66  and  _67
REMARK   26  A    between atoms: _66  and  _69
REMARK   27  A    between atoms: _69  and  _70
REMARK   28  A    between atoms: _75  and  _76
REMARK   29  A    between atoms: _78  and  _80
REMARK   30  A    between atoms: _80  and  _81
REMARK   31  A    between atoms: _80  and  _83
REMARK   32  A    between atoms: _83  and  _84
REMARK   33  A    between atoms: _94  and  _96
REMARK   34  A    between atoms: _96  and  _97
REMARK   35  A    between atoms: _96  and  _99
REMARK   36  A    between atoms: _99  and  _100
REMARK   37  A    between atoms: _104  and  _105
REMARK   38  A    between atoms: _110  and  _112
REMARK   39  A    between atoms: _112  and  _113
REMARK   40  A    between atoms: _112  and  _115
REMARK   41  A    between atoms: _115  and  _116
REMARK   42  A    between atoms: _122  and  _124
REMARK   43  A    between atoms: _124  and  _125
REMARK   44  A    between atoms: _124  and  _127
REMARK   45  A    between atoms: _127  and  _128
REMARK   46  A    between atoms: _128  and  _129
REMARK   47  A    between atoms: _129  and  _130
REMARK   48  A    between atoms: _130  and  _131
REMARK   49  A    between atoms: _135  and  _137
REMARK   50  A    between atoms: _137  and  _138
REMARK   51  A    between atoms: _137  and  _140
REMARK   52  A    between atoms: _140  and  _141
REMARK   53  A    between atoms: _143  and  _145
REMARK   54  A    between atoms: _145  and  _146
REMARK   55  A    between atoms: _145  and  _148
REMARK   56  A    between atoms: _148  and  _149
REMARK   57  A    between atoms: _149  and  _150
REMARK   58  A    between atoms: _153  and  _155
REMARK   59  A    between atoms: _155  and  _156
REMARK   60  A    between atoms: _155  and  _158
REMARK   61  A    between atoms: _158  and  _159
REMARK   62  A    between atoms: _159  and  _160
REMARK   63  A    between atoms: _160  and  _161
REMARK   64  A    between atoms: _170  and  _172
REMARK   65  A    between atoms: _172  and  _173
REMARK   66  A    between atoms: _172  and  _175
REMARK   67  A    between atoms: _175  and  _176
REMARK   68  A    between atoms: _182  and  _184
REMARK   69  A    between atoms: _184  and  _185
REMARK   70  A    between atoms: _184  and  _187
REMARK   71  A    between atoms: _187  and  _188
REMARK   72  A    between atoms: _194  and  _196
REMARK   73  A    between atoms: _196  and  _197
REMARK   74  A    between atoms: _196  and  _199
REMARK   75  A    between atoms: _199  and  _200
REMARK   76  A    between atoms: _203  and  _205
REMARK   77  A    between atoms: _205  and  _206
REMARK   78  A    between atoms: _205  and  _208
REMARK   79  A    between atoms: _208  and  _209
REMARK   80  A    between atoms: _215  and  _217
REMARK   81  A    between atoms: _217  and  _218
REMARK   82  A    between atoms: _217  and  _220
REMARK   83  A    between atoms: _220  and  _221
REMARK   84  A    between atoms: _221  and  _222
REMARK   85  A    between atoms: _222  and  _223
REMARK   86  A    between atoms: _232  and  _234
REMARK   87  A    between atoms: _234  and  _235
REMARK   88  A    between atoms: _234  and  _237
REMARK   89  A    between atoms: _237  and  _238
REMARK   90  A    between atoms: _241  and  _243
REMARK   91  A    between atoms: _243  and  _244
REMARK   92  A    between atoms: _243  and  _246
REMARK   93  A    between atoms: _246  and  _247
REMARK   94  A    between atoms: _252  and  _253
REMARK   95  A    between atoms: _255  and  _257
REMARK   96  A    between atoms: _257  and  _258
REMARK   97  A    between atoms: _257  and  _260
REMARK   98  A    between atoms: _260  and  _261
REMARK   99  A    between atoms: _266  and  _267
REMARK  100  A    between atoms: _269  and  _271
REMARK  101  A    between atoms: _271  and  _272
REMARK  102  A    between atoms: _271  and  _274
REMARK  103  A    between atoms: _274  and  _275
REMARK  104  A    between atoms: _285  and  _287
REMARK  105  A    between atoms: _287  and  _288
REMARK  106  A    between atoms: _287  and  _290
REMARK  107  A    between atoms: _290  and  _291
REMARK  108  A    between atoms: _296  and  _297
REMARK  109  A    between atoms: _299  and  _301
REMARK  110  A    between atoms: _301  and  _302
REMARK  111  A    between atoms: _301  and  _304
REMARK  112  A    between atoms: _304  and  _305
REMARK  113  A    between atoms: _305  and  _306
REMARK  114  A    between atoms: _306  and  _307
REMARK                            x       y       z     vdW  Elec       q    Type
REMARK                         _______ _______ _______ _____ _____    ______ ____
ROOT
ATOM      1  O   HOH     1       8.681  32.514  10.160  0.00  0.00    +0.000 OA
ENDROOT
TORSDOF 0
REMARK  Name = ../refined-set-2016/1ugp/1ugp_pocket.pdb
REMARK  114 active torsions:
REMARK  status: ('A' for Active; 'I' for Inactive)
REMARK    1  A    between atoms: _1  and  _3
REMARK    2  A    between atoms: _3  and  _4
REMARK    3  A    between atoms: _3  and  _6
REMARK    4  A    between atoms: _6  and  _7
REMARK    5  A    between atoms: _10  and  _12
REMARK    6  A    between atoms: _12  and  _13
REMARK    7  A    between atoms: _12  and  _15
REMARK    8  A    between atoms: _15  and  _16
REMARK    9  A    between atoms: _16  and  _17
REMARK   10  A    between atoms: _22  and  _24
REMARK   11  A    between atoms: _24  and  _25
REMARK   12  A    between atoms: _24  and  _27
REMARK   13  A    between atoms: _27  and  _28
REMARK   14  A    between atoms: _28  and  CO_316
REMARK   15  A    between atoms: _29  and  _31
REMARK   16  A    between atoms: _31  and  _32
REMARK   17  A    between atoms: _31  and  _34
REMARK   18  A    between atoms: _34  and  _35
REMARK   19  A    between atoms: _38  and  _40
REMARK   20  A    between atoms: _49  and  _52
REMARK   21  A    between atoms: _52  and  _53
REMARK   22  A    between atoms: _57  and  _60
REMARK   23  A    between atoms: _59  and  _62
REMARK   24  A    between atoms: _64  and  _66
REMARK   25  A    between atoms: _66  and  _67
REMARK   26  A    between atoms: _66  and  _69
REMARK   27  A    between atoms: _69  and  _70
REMARK   28  A    between atoms: _75  and  _76
REMARK   29  A    between atoms: _78  and  _80
REMARK   30  A    between atoms: _80  and  _81
REMARK   31  A    between atoms: _80  and  _83
REMARK   32  A    between atoms: _83  and  _84
REMARK   33  A    between atoms: _94  and  _96
REMARK   34  A    between atoms: _96  and  _97
REMARK   35  A    between atoms: _96  and  _99
REMARK   36  A    between atoms: _99  and  _100
REMARK   37  A    between atoms: _104  and  _105
REMARK   38  A    between atoms: _110  and  _112
REMARK   39  A    between atoms: _112  and  _113
REMARK   40  A    between atoms: _112  and  _115
REMARK   41  A    between atoms: _115  and  _116
REMARK   42  A    between atoms: _122  and  _124
REMARK   43  A    between atoms: _124  and  _125
REMARK   44  A    between atoms: _124  and  _127
REMARK   45  A    between atoms: _127  and  _128
REMARK   46  A    between atoms: _128  and  _129
REMARK   47  A    between atoms: _129  and  _130
REMARK   48  A    between atoms: _130  and  _131
REMARK   49  A    between atoms: _135  and  _137
REMARK   50  A    between atoms: _137  and  _138
REMARK   51  A    between atoms: _137  and  _140
REMARK   52  A    between atoms: _140  and  _141
REMARK   53  A    between atoms: _143  and  _145
REMARK   54  A    between atoms: _145  and  _146
REMARK   55  A    between atoms: _145  and  _148
REMARK   56  A    between atoms: _148  and  _149
REMARK   57  A    between atoms: _149  and  _150
REMARK   58  A    between atoms: _153  and  _155
REMARK   59  A    between atoms: _155  and  _156
REMARK   60  A    between atoms: _155  and  _158
REMARK   61  A    between atoms: _158  and  _159
REMARK   62  A    between atoms: _159  and  _160
REMARK   63  A    between atoms: _160  and  _161
REMARK   64  A    between atoms: _170  and  _172
REMARK   65  A    between atoms: _172  and  _173
REMARK   66  A    between atoms: _172  and  _175
REMARK   67  A    between atoms: _175  and  _176
REMARK   68  A    between atoms: _182  and  _184
REMARK   69  A    between atoms: _184  and  _185
REMARK   70  A    between atoms: _184  and  _187
REMARK   71  A    between atoms: _187  and  _188
REMARK   72  A    between atoms: _194  and  _196
REMARK   73  A    between atoms: _196  and  _197
REMARK   74  A    between atoms: _196  and  _199
REMARK   75  A    between atoms: _199  and  _200
REMARK   76  A    between atoms: _203  and  _205
REMARK   77  A    between atoms: _205  and  _206
REMARK   78  A    between atoms: _205  and  _208
REMARK   79  A    between atoms: _208  and  _209
REMARK   80  A    between atoms: _215  and  _217
REMARK   81  A    between atoms: _217  and  _218
REMARK   82  A    between atoms: _217  and  _220
REMARK   83  A    between atoms: _220  and  _221
REMARK   84  A    between atoms: _221  and  _222
REMARK   85  A    between atoms: _222  and  _223
REMARK   86  A    between atoms: _232  and  _234
REMARK   87  A    between atoms: _234  and  _235
REMARK   88  A    between atoms: _234  and  _237
REMARK   89  A    between atoms: _237  and  _238
REMARK   90  A    between atoms: _241  and  _243
REMARK   91  A    between atoms: _243  and  _244
REMARK   92  A    between atoms: _243  and  _246
REMARK   93  A    between atoms: _246  and  _247
REMARK   94  A    between atoms: _252  and  _253
REMARK   95  A    between atoms: _255  and  _257
REMARK   96  A    between atoms: _257  and  _258
REMARK   97  A    between atoms: _257  and  _260
REMARK   98  A    between atoms: _260  and  _261
REMARK   99  A    between atoms: _266  and  _267
REMARK  100  A    between atoms: _269  and  _271
REMARK  101  A    between atoms: _271  and  _272
REMARK  102  A    between atoms: _271  and  _274
REMARK  103  A    between atoms: _274  and  _275
REMARK  104  A    between atoms: _285  and  _287
REMARK  105  A    between atoms: _287  and  _288
REMARK  106  A    between atoms: _287  and  _290
REMARK  107  A    between atoms: _290  and  _291
REMARK  108  A    between atoms: _296  and  _297
REMARK  109  A    between atoms: _299  and  _301
REMARK  110  A    between atoms: _301  and  _302
REMARK  111  A    between atoms: _301  and  _304
REMARK  112  A    between atoms: _304  and  _305
REMARK  113  A    between atoms: _305  and  _306
REMARK  114  A    between atoms: _306  and  _307
REMARK                            x       y       z     vdW  Elec       q    Type
REMARK                         _______ _______ _______ _____ _____    ______ ____
ROOT
ATOM      1  O   HOH     1      12.074  32.827  15.312  0.00  0.00    +0.000 OA
ENDROOT
TORSDOF 0
REMARK  Name = ../refined-set-2016/1ugp/1ugp_pocket.pdb
REMARK  114 active torsions:
REMARK  status: ('A' for Active; 'I' for Inactive)
REMARK    1  A    between atoms: _1  and  _3
REMARK    2  A    between atoms: _3  and  _4
REMARK    3  A    between atoms: _3  and  _6
REMARK    4  A    between atoms: _6  and  _7
REMARK    5  A    between atoms: _10  and  _12
REMARK    6  A    between atoms: _12  and  _13
REMARK    7  A    between atoms: _12  and  _15
REMARK    8  A    between atoms: _15  and  _16
REMARK    9  A    between atoms: _16  and  _17
REMARK   10  A    between atoms: _22  and  _24
REMARK   11  A    between atoms: _24  and  _25
REMARK   12  A    between atoms: _24  and  _27
REMARK   13  A    between atoms: _27  and  _28
REMARK   14  A    between atoms: _28  and  CO_316
REMARK   15  A    between atoms: _29  and  _31
REMARK   16  A    between atoms: _31  and  _32
REMARK   17  A    between atoms: _31  and  _34
REMARK   18  A    between atoms: _34  and  _35
REMARK   19  A    between atoms: _38  and  _40
REMARK   20  A    between atoms: _49  and  _52
REMARK   21  A    between atoms: _52  and  _53
REMARK   22  A    between atoms: _57  and  _60
REMARK   23  A    between atoms: _59  and  _62
REMARK   24  A    between atoms: _64  and  _66
REMARK   25  A    between atoms: _66  and  _67
REMARK   26  A    between atoms: _66  and  _69
REMARK   27  A    between atoms: _69  and  _70
REMARK   28  A    between atoms: _75  and  _76
REMARK   29  A    between atoms: _78  and  _80
REMARK   30  A    between atoms: _80  and  _81
REMARK   31  A    between atoms: _80  and  _83
REMARK   32  A    between atoms: _83  and  _84
REMARK   33  A    between atoms: _94  and  _96
REMARK   34  A    between atoms: _96  and  _97
REMARK   35  A    between atoms: _96  and  _99
REMARK   36  A    between atoms: _99  and  _100
REMARK   37  A    between atoms: _104  and  _105
REMARK   38  A    between atoms: _110  and  _112
REMARK   39  A    between atoms: _112  and  _113
REMARK   40  A    between atoms: _112  and  _115
REMARK   41  A    between atoms: _115  and  _116
REMARK   42  A    between atoms: _122  and  _124
REMARK   43  A    between atoms: _124  and  _125
REMARK   44  A    between atoms: _124  and  _127
REMARK   45  A    between atoms: _127  and  _128
REMARK   46  A    between atoms: _128  and  _129
REMARK   47  A    between atoms: _129  and  _130
REMARK   48  A    between atoms: _130  and  _131
REMARK   49  A    between atoms: _135  and  _137
REMARK   50  A    between atoms: _137  and  _138
REMARK   51  A    between atoms: _137  and  _140
REMARK   52  A    between atoms: _140  and  _141
REMARK   53  A    between atoms: _143  and  _145
REMARK   54  A    between atoms: _145  and  _146
REMARK   55  A    between atoms: _145  and  _148
REMARK   56  A    between atoms: _148  and  _149
REMARK   57  A    between atoms: _149  and  _150
REMARK   58  A    between atoms: _153  and  _155
REMARK   59  A    between atoms: _155  and  _156
REMARK   60  A    between atoms: _155  and  _158
REMARK   61  A    between atoms: _158  and  _159
REMARK   62  A    between atoms: _159  and  _160
REMARK   63  A    between atoms: _160  and  _161
REMARK   64  A    between atoms: _170  and  _172
REMARK   65  A    between atoms: _172  and  _173
REMARK   66  A    between atoms: _172  and  _175
REMARK   67  A    between atoms: _175  and  _176
REMARK   68  A    between atoms: _182  and  _184
REMARK   69  A    between atoms: _184  and  _185
REMARK   70  A    between atoms: _184  and  _187
REMARK   71  A    between atoms: _187  and  _188
REMARK   72  A    between atoms: _194  and  _196
REMARK   73  A    between atoms: _196  and  _197
REMARK   74  A    between atoms: _196  and  _199
REMARK   75  A    between atoms: _199  and  _200
REMARK   76  A    between atoms: _203  and  _205
REMARK   77  A    between atoms: _205  and  _206
REMARK   78  A    between atoms: _205  and  _208
REMARK   79  A    between atoms: _208  and  _209
REMARK   80  A    between atoms: _215  and  _217
REMARK   81  A    between atoms: _217  and  _218
REMARK   82  A    between atoms: _217  and  _220
REMARK   83  A    between atoms: _220  and  _221
REMARK   84  A    between atoms: _221  and  _222
REMARK   85  A    between atoms: _222  and  _223
REMARK   86  A    between atoms: _232  and  _234
REMARK   87  A    between atoms: _234  and  _235
REMARK   88  A    between atoms: _234  and  _237
REMARK   89  A    between atoms: _237  and  _238
REMARK   90  A    between atoms: _241  and  _243
REMARK   91  A    between atoms: _243  and  _244
REMARK   92  A    between atoms: _243  and  _246
REMARK   93  A    between atoms: _246  and  _247
REMARK   94  A    between atoms: _252  and  _253
REMARK   95  A    between atoms: _255  and  _257
REMARK   96  A    between atoms: _257  and  _258
REMARK   97  A    between atoms: _257  and  _260
REMARK   98  A    between atoms: _260  and  _261
REMARK   99  A    between atoms: _266  and  _267
REMARK  100  A    between atoms: _269  and  _271
REMARK  101  A    between atoms: _271  and  _272
REMARK  102  A    between atoms: _271  and  _274
REMARK  103  A    between atoms: _274  and  _275
REMARK  104  A    between atoms: _285  and  _287
REMARK  105  A    between atoms: _287  and  _288
REMARK  106  A    between atoms: _287  and  _290
REMARK  107  A    between atoms: _290  and  _291
REMARK  108  A    between atoms: _296  and  _297
REMARK  109  A    between atoms: _299  and  _301
REMARK  110  A    between atoms: _301  and  _302
REMARK  111  A    between atoms: _301  and  _304
REMARK  112  A    between atoms: _304  and  _305
REMARK  113  A    between atoms: _305  and  _306
REMARK  114  A    between atoms: _306  and  _307
REMARK                            x       y       z     vdW  Elec       q    Type
REMARK                         _______ _______ _______ _____ _____    ______ ____
ROOT
ATOM      1  O   HOH     1       9.055  38.223  24.749  0.00  0.00    +0.000 OA
ENDROOT
TORSDOF 0
REMARK  Name = ../refined-set-2016/1ugp/1ugp_pocket.pdb
REMARK  114 active torsions:
REMARK  status: ('A' for Active; 'I' for Inactive)
REMARK    1  A    between atoms: _1  and  _3
REMARK    2  A    between atoms: _3  and  _4
REMARK    3  A    between atoms: _3  and  _6
REMARK    4  A    between atoms: _6  and  _7
REMARK    5  A    between atoms: _10  and  _12
REMARK    6  A    between atoms: _12  and  _13
REMARK    7  A    between atoms: _12  and  _15
REMARK    8  A    between atoms: _15  and  _16
REMARK    9  A    between atoms: _16  and  _17
REMARK   10  A    between atoms: _22  and  _24
REMARK   11  A    between atoms: _24  and  _25
REMARK   12  A    between atoms: _24  and  _27
REMARK   13  A    between atoms: _27  and  _28
REMARK   14  A    between atoms: _28  and  CO_316
REMARK   15  A    between atoms: _29  and  _31
REMARK   16  A    between atoms: _31  and  _32
REMARK   17  A    between atoms: _31  and  _34
REMARK   18  A    between atoms: _34  and  _35
REMARK   19  A    between atoms: _38  and  _40
REMARK   20  A    between atoms: _49  and  _52
REMARK   21  A    between atoms: _52  and  _53
REMARK   22  A    between atoms: _57  and  _60
REMARK   23  A    between atoms: _59  and  _62
REMARK   24  A    between atoms: _64  and  _66
REMARK   25  A    between atoms: _66  and  _67
REMARK   26  A    between atoms: _66  and  _69
REMARK   27  A    between atoms: _69  and  _70
REMARK   28  A    between atoms: _75  and  _76
REMARK   29  A    between atoms: _78  and  _80
REMARK   30  A    between atoms: _80  and  _81
REMARK   31  A    between atoms: _80  and  _83
REMARK   32  A    between atoms: _83  and  _84
REMARK   33  A    between atoms: _94  and  _96
REMARK   34  A    between atoms: _96  and  _97
REMARK   35  A    between atoms: _96  and  _99
REMARK   36  A    between atoms: _99  and  _100
REMARK   37  A    between atoms: _104  and  _105
REMARK   38  A    between atoms: _110  and  _112
REMARK   39  A    between atoms: _112  and  _113
REMARK   40  A    between atoms: _112  and  _115
REMARK   41  A    between atoms: _115  and  _116
REMARK   42  A    between atoms: _122  and  _124
REMARK   43  A    between atoms: _124  and  _125
REMARK   44  A    between atoms: _124  and  _127
REMARK   45  A    between atoms: _127  and  _128
REMARK   46  A    between atoms: _128  and  _129
REMARK   47  A    between atoms: _129  and  _130
REMARK   48  A    between atoms: _130  and  _131
REMARK   49  A    between atoms: _135  and  _137
REMARK   50  A    between atoms: _137  and  _138
REMARK   51  A    between atoms: _137  and  _140
REMARK   52  A    between atoms: _140  and  _141
REMARK   53  A    between atoms: _143  and  _145
REMARK   54  A    between atoms: _145  and  _146
REMARK   55  A    between atoms: _145  and  _148
REMARK   56  A    between atoms: _148  and  _149
REMARK   57  A    between atoms: _149  and  _150
REMARK   58  A    between atoms: _153  and  _155
REMARK   59  A    between atoms: _155  and  _156
REMARK   60  A    between atoms: _155  and  _158
REMARK   61  A    between atoms: _158  and  _159
REMARK   62  A    between atoms: _159  and  _160
REMARK   63  A    between atoms: _160  and  _161
REMARK   64  A    between atoms: _170  and  _172
REMARK   65  A    between atoms: _172  and  _173
REMARK   66  A    between atoms: _172  and  _175
REMARK   67  A    between atoms: _175  and  _176
REMARK   68  A    between atoms: _182  and  _184
REMARK   69  A    between atoms: _184  and  _185
REMARK   70  A    between atoms: _184  and  _187
REMARK   71  A    between atoms: _187  and  _188
REMARK   72  A    between atoms: _194  and  _196
REMARK   73  A    between atoms: _196  and  _197
REMARK   74  A    between atoms: _196  and  _199
REMARK   75  A    between atoms: _199  and  _200
REMARK   76  A    between atoms: _203  and  _205
REMARK   77  A    between atoms: _205  and  _206
REMARK   78  A    between atoms: _205  and  _208
REMARK   79  A    between atoms: _208  and  _209
REMARK   80  A    between atoms: _215  and  _217
REMARK   81  A    between atoms: _217  and  _218
REMARK   82  A    between atoms: _217  and  _220
REMARK   83  A    between atoms: _220  and  _221
REMARK   84  A    between atoms: _221  and  _222
REMARK   85  A    between atoms: _222  and  _223
REMARK   86  A    between atoms: _232  and  _234
REMARK   87  A    between atoms: _234  and  _235
REMARK   88  A    between atoms: _234  and  _237
REMARK   89  A    between atoms: _237  and  _238
REMARK   90  A    between atoms: _241  and  _243
REMARK   91  A    between atoms: _243  and  _244
REMARK   92  A    between atoms: _243  and  _246
REMARK   93  A    between atoms: _246  and  _247
REMARK   94  A    between atoms: _252  and  _253
REMARK   95  A    between atoms: _255  and  _257
REMARK   96  A    between atoms: _257  and  _258
REMARK   97  A    between atoms: _257  and  _260
REMARK   98  A    between atoms: _260  and  _261
REMARK   99  A    between atoms: _266  and  _267
REMARK  100  A    between atoms: _269  and  _271
REMARK  101  A    between atoms: _271  and  _272
REMARK  102  A    between atoms: _271  and  _274
REMARK  103  A    between atoms: _274  and  _275
REMARK  104  A    between atoms: _285  and  _287
REMARK  105  A    between atoms: _287  and  _288
REMARK  106  A    between atoms: _287  and  _290
REMARK  107  A    between atoms: _290  and  _291
REMARK  108  A    between atoms: _296  and  _297
REMARK  109  A    between atoms: _299  and  _301
REMARK  110  A    between atoms: _301  and  _302
REMARK  111  A    between atoms: _301  and  _304
REMARK  112  A    between atoms: _304  and  _305
REMARK  113  A    between atoms: _305  and  _306
REMARK  114  A    between atoms: _306  and  _307
REMARK                            x       y       z     vdW  Elec       q    Type
REMARK                         _______ _______ _______ _____ _____    ______ ____
ROOT
ATOM      1  O   HOH     1       5.130  36.284  16.152  0.00  0.00    +0.000 OA
ENDROOT
TORSDOF 0
REMARK  Name = ../refined-set-2016/1ugp/1ugp_pocket.pdb
REMARK  114 active torsions:
REMARK  status: ('A' for Active; 'I' for Inactive)
REMARK    1  A    between atoms: _1  and  _3
REMARK    2  A    between atoms: _3  and  _4
REMARK    3  A    between atoms: _3  and  _6
REMARK    4  A    between atoms: _6  and  _7
REMARK    5  A    between atoms: _10  and  _12
REMARK    6  A    between atoms: _12  and  _13
REMARK    7  A    between atoms: _12  and  _15
REMARK    8  A    between atoms: _15  and  _16
REMARK    9  A    between atoms: _16  and  _17
REMARK   10  A    between atoms: _22  and  _24
REMARK   11  A    between atoms: _24  and  _25
REMARK   12  A    between atoms: _24  and  _27
REMARK   13  A    between atoms: _27  and  _28
REMARK   14  A    between atoms: _28  and  CO_316
REMARK   15  A    between atoms: _29  and  _31
REMARK   16  A    between atoms: _31  and  _32
REMARK   17  A    between atoms: _31  and  _34
REMARK   18  A    between atoms: _34  and  _35
REMARK   19  A    between atoms: _38  and  _40
REMARK   20  A    between atoms: _49  and  _52
REMARK   21  A    between atoms: _52  and  _53
REMARK   22  A    between atoms: _57  and  _60
REMARK   23  A    between atoms: _59  and  _62
REMARK   24  A    between atoms: _64  and  _66
REMARK   25  A    between atoms: _66  and  _67
REMARK   26  A    between atoms: _66  and  _69
REMARK   27  A    between atoms: _69  and  _70
REMARK   28  A    between atoms: _75  and  _76
REMARK   29  A    between atoms: _78  and  _80
REMARK   30  A    between atoms: _80  and  _81
REMARK   31  A    between atoms: _80  and  _83
REMARK   32  A    between atoms: _83  and  _84
REMARK   33  A    between atoms: _94  and  _96
REMARK   34  A    between atoms: _96  and  _97
REMARK   35  A    between atoms: _96  and  _99
REMARK   36  A    between atoms: _99  and  _100
REMARK   37  A    between atoms: _104  and  _105
REMARK   38  A    between atoms: _110  and  _112
REMARK   39  A    between atoms: _112  and  _113
REMARK   40  A    between atoms: _112  and  _115
REMARK   41  A    between atoms: _115  and  _116
REMARK   42  A    between atoms: _122  and  _124
REMARK   43  A    between atoms: _124  and  _125
REMARK   44  A    between atoms: _124  and  _127
REMARK   45  A    between atoms: _127  and  _128
REMARK   46  A    between atoms: _128  and  _129
REMARK   47  A    between atoms: _129  and  _130
REMARK   48  A    between atoms: _130  and  _131
REMARK   49  A    between atoms: _135  and  _137
REMARK   50  A    between atoms: _137  and  _138
REMARK   51  A    between atoms: _137  and  _140
REMARK   52  A    between atoms: _140  and  _141
REMARK   53  A    between atoms: _143  and  _145
REMARK   54  A    between atoms: _145  and  _146
REMARK   55  A    between atoms: _145  and  _148
REMARK   56  A    between atoms: _148  and  _149
REMARK   57  A    between atoms: _149  and  _150
REMARK   58  A    between atoms: _153  and  _155
REMARK   59  A    between atoms: _155  and  _156
REMARK   60  A    between atoms: _155  and  _158
REMARK   61  A    between atoms: _158  and  _159
REMARK   62  A    between atoms: _159  and  _160
REMARK   63  A    between atoms: _160  and  _161
REMARK   64  A    between atoms: _170  and  _172
REMARK   65  A    between atoms: _172  and  _173
REMARK   66  A    between atoms: _172  and  _175
REMARK   67  A    between atoms: _175  and  _176
REMARK   68  A    between atoms: _182  and  _184
REMARK   69  A    between atoms: _184  and  _185
REMARK   70  A    between atoms: _184  and  _187
REMARK   71  A    between atoms: _187  and  _188
REMARK   72  A    between atoms: _194  and  _196
REMARK   73  A    between atoms: _196  and  _197
REMARK   74  A    between atoms: _196  and  _199
REMARK   75  A    between atoms: _199  and  _200
REMARK   76  A    between atoms: _203  and  _205
REMARK   77  A    between atoms: _205  and  _206
REMARK   78  A    between atoms: _205  and  _208
REMARK   79  A    between atoms: _208  and  _209
REMARK   80  A    between atoms: _215  and  _217
REMARK   81  A    between atoms: _217  and  _218
REMARK   82  A    between atoms: _217  and  _220
REMARK   83  A    between atoms: _220  and  _221
REMARK   84  A    between atoms: _221  and  _222
REMARK   85  A    between atoms: _222  and  _223
REMARK   86  A    between atoms: _232  and  _234
REMARK   87  A    between atoms: _234  and  _235
REMARK   88  A    between atoms: _234  and  _237
REMARK   89  A    between atoms: _237  and  _238
REMARK   90  A    between atoms: _241  and  _243
REMARK   91  A    between atoms: _243  and  _244
REMARK   92  A    between atoms: _243  and  _246
REMARK   93  A    between atoms: _246  and  _247
REMARK   94  A    between atoms: _252  and  _253
REMARK   95  A    between atoms: _255  and  _257
REMARK   96  A    between atoms: _257  and  _258
REMARK   97  A    between atoms: _257  and  _260
REMARK   98  A    between atoms: _260  and  _261
REMARK   99  A    between atoms: _266  and  _267
REMARK  100  A    between atoms: _269  and  _271
REMARK  101  A    between atoms: _271  and  _272
REMARK  102  A    between atoms: _271  and  _274
REMARK  103  A    between atoms: _274  and  _275
REMARK  104  A    between atoms: _285  and  _287
REMARK  105  A    between atoms: _287  and  _288
REMARK  106  A    between atoms: _287  and  _290
REMARK  107  A    between atoms: _290  and  _291
REMARK  108  A    between atoms: _296  and  _297
REMARK  109  A    between atoms: _299  and  _301
REMARK  110  A    between atoms: _301  and  _302
REMARK  111  A    between atoms: _301  and  _304
REMARK  112  A    between atoms: _304  and  _305
REMARK  113  A    between atoms: _305  and  _306
REMARK  114  A    between atoms: _306  and  _307
REMARK                            x       y       z     vdW  Elec       q    Type
REMARK                         _______ _______ _______ _____ _____    ______ ____
ROOT
ATOM      1  O   HOH     1      13.401  40.462  16.784  0.00  0.00    +0.000 OA
ENDROOT
TORSDOF 0
REMARK  Name = ../refined-set-2016/1ugp/1ugp_pocket.pdb
REMARK  114 active torsions:
REMARK  status: ('A' for Active; 'I' for Inactive)
REMARK    1  A    between atoms: _1  and  _3
REMARK    2  A    between atoms: _3  and  _4
REMARK    3  A    between atoms: _3  and  _6
REMARK    4  A    between atoms: _6  and  _7
REMARK    5  A    between atoms: _10  and  _12
REMARK    6  A    between atoms: _12  and  _13
REMARK    7  A    between atoms: _12  and  _15
REMARK    8  A    between atoms: _15  and  _16
REMARK    9  A    between atoms: _16  and  _17
REMARK   10  A    between atoms: _22  and  _24
REMARK   11  A    between atoms: _24  and  _25
REMARK   12  A    between atoms: _24  and  _27
REMARK   13  A    between atoms: _27  and  _28
REMARK   14  A    between atoms: _28  and  CO_316
REMARK   15  A    between atoms: _29  and  _31
REMARK   16  A    between atoms: _31  and  _32
REMARK   17  A    between atoms: _31  and  _34
REMARK   18  A    between atoms: _34  and  _35
REMARK   19  A    between atoms: _38  and  _40
REMARK   20  A    between atoms: _49  and  _52
REMARK   21  A    between atoms: _52  and  _53
REMARK   22  A    between atoms: _57  and  _60
REMARK   23  A    between atoms: _59  and  _62
REMARK   24  A    between atoms: _64  and  _66
REMARK   25  A    between atoms: _66  and  _67
REMARK   26  A    between atoms: _66  and  _69
REMARK   27  A    between atoms: _69  and  _70
REMARK   28  A    between atoms: _75  and  _76
REMARK   29  A    between atoms: _78  and  _80
REMARK   30  A    between atoms: _80  and  _81
REMARK   31  A    between atoms: _80  and  _83
REMARK   32  A    between atoms: _83  and  _84
REMARK   33  A    between atoms: _94  and  _96
REMARK   34  A    between atoms: _96  and  _97
REMARK   35  A    between atoms: _96  and  _99
REMARK   36  A    between atoms: _99  and  _100
REMARK   37  A    between atoms: _104  and  _105
REMARK   38  A    between atoms: _110  and  _112
REMARK   39  A    between atoms: _112  and  _113
REMARK   40  A    between atoms: _112  and  _115
REMARK   41  A    between atoms: _115  and  _116
REMARK   42  A    between atoms: _122  and  _124
REMARK   43  A    between atoms: _124  and  _125
REMARK   44  A    between atoms: _124  and  _127
REMARK   45  A    between atoms: _127  and  _128
REMARK   46  A    between atoms: _128  and  _129
REMARK   47  A    between atoms: _129  and  _130
REMARK   48  A    between atoms: _130  and  _131
REMARK   49  A    between atoms: _135  and  _137
REMARK   50  A    between atoms: _137  and  _138
REMARK   51  A    between atoms: _137  and  _140
REMARK   52  A    between atoms: _140  and  _141
REMARK   53  A    between atoms: _143  and  _145
REMARK   54  A    between atoms: _145  and  _146
REMARK   55  A    between atoms: _145  and  _148
REMARK   56  A    between atoms: _148  and  _149
REMARK   57  A    between atoms: _149  and  _150
REMARK   58  A    between atoms: _153  and  _155
REMARK   59  A    between atoms: _155  and  _156
REMARK   60  A    between atoms: _155  and  _158
REMARK   61  A    between atoms: _158  and  _159
REMARK   62  A    between atoms: _159  and  _160
REMARK   63  A    between atoms: _160  and  _161
REMARK   64  A    between atoms: _170  and  _172
REMARK   65  A    between atoms: _172  and  _173
REMARK   66  A    between atoms: _172  and  _175
REMARK   67  A    between atoms: _175  and  _176
REMARK   68  A    between atoms: _182  and  _184
REMARK   69  A    between atoms: _184  and  _185
REMARK   70  A    between atoms: _184  and  _187
REMARK   71  A    between atoms: _187  and  _188
REMARK   72  A    between atoms: _194  and  _196
REMARK   73  A    between atoms: _196  and  _197
REMARK   74  A    between atoms: _196  and  _199
REMARK   75  A    between atoms: _199  and  _200
REMARK   76  A    between atoms: _203  and  _205
REMARK   77  A    between atoms: _205  and  _206
REMARK   78  A    between atoms: _205  and  _208
REMARK   79  A    between atoms: _208  and  _209
REMARK   80  A    between atoms: _215  and  _217
REMARK   81  A    between atoms: _217  and  _218
REMARK   82  A    between atoms: _217  and  _220
REMARK   83  A    between atoms: _220  and  _221
REMARK   84  A    between atoms: _221  and  _222
REMARK   85  A    between atoms: _222  and  _223
REMARK   86  A    between atoms: _232  and  _234
REMARK   87  A    between atoms: _234  and  _235
REMARK   88  A    between atoms: _234  and  _237
REMARK   89  A    between atoms: _237  and  _238
REMARK   90  A    between atoms: _241  and  _243
REMARK   91  A    between atoms: _243  and  _244
REMARK   92  A    between atoms: _243  and  _246
REMARK   93  A    between atoms: _246  and  _247
REMARK   94  A    between atoms: _252  and  _253
REMARK   95  A    between atoms: _255  and  _257
REMARK   96  A    between atoms: _257  and  _258
REMARK   97  A    between atoms: _257  and  _260
REMARK   98  A    between atoms: _260  and  _261
REMARK   99  A    between atoms: _266  and  _267
REMARK  100  A    between atoms: _269  and  _271
REMARK  101  A    between atoms: _271  and  _272
REMARK  102  A    between atoms: _271  and  _274
REMARK  103  A    between atoms: _274  and  _275
REMARK  104  A    between atoms: _285  and  _287
REMARK  105  A    between atoms: _287  and  _288
REMARK  106  A    between atoms: _287  and  _290
REMARK  107  A    between atoms: _290  and  _291
REMARK  108  A    between atoms: _296  and  _297
REMARK  109  A    between atoms: _299  and  _301
REMARK  110  A    between atoms: _301  and  _302
REMARK  111  A    between atoms: _301  and  _304
REMARK  112  A    between atoms: _304  and  _305
REMARK  113  A    between atoms: _305  and  _306
REMARK  114  A    between atoms: _306  and  _307
REMARK                            x       y       z     vdW  Elec       q    Type
REMARK                         _______ _______ _______ _____ _____    ______ ____
ROOT
ATOM      1  O   HOH     1       6.166  38.049  18.151  0.00  0.00    +0.000 OA
ENDROOT
TORSDOF 0
REMARK  Name = ../refined-set-2016/1ugp/1ugp_pocket.pdb
REMARK  114 active torsions:
REMARK  status: ('A' for Active; 'I' for Inactive)
REMARK    1  A    between atoms: _1  and  _3
REMARK    2  A    between atoms: _3  and  _4
REMARK    3  A    between atoms: _3  and  _6
REMARK    4  A    between atoms: _6  and  _7
REMARK    5  A    between atoms: _10  and  _12
REMARK    6  A    between atoms: _12  and  _13
REMARK    7  A    between atoms: _12  and  _15
REMARK    8  A    between atoms: _15  and  _16
REMARK    9  A    between atoms: _16  and  _17
REMARK   10  A    between atoms: _22  and  _24
REMARK   11  A    between atoms: _24  and  _25
REMARK   12  A    between atoms: _24  and  _27
REMARK   13  A    between atoms: _27  and  _28
REMARK   14  A    between atoms: _28  and  CO_316
REMARK   15  A    between atoms: _29  and  _31
REMARK   16  A    between atoms: _31  and  _32
REMARK   17  A    between atoms: _31  and  _34
REMARK   18  A    between atoms: _34  and  _35
REMARK   19  A    between atoms: _38  and  _40
REMARK   20  A    between atoms: _49  and  _52
REMARK   21  A    between atoms: _52  and  _53
REMARK   22  A    between atoms: _57  and  _60
REMARK   23  A    between atoms: _59  and  _62
REMARK   24  A    between atoms: _64  and  _66
REMARK   25  A    between atoms: _66  and  _67
REMARK   26  A    between atoms: _66  and  _69
REMARK   27  A    between atoms: _69  and  _70
REMARK   28  A    between atoms: _75  and  _76
REMARK   29  A    between atoms: _78  and  _80
REMARK   30  A    between atoms: _80  and  _81
REMARK   31  A    between atoms: _80  and  _83
REMARK   32  A    between atoms: _83  and  _84
REMARK   33  A    between atoms: _94  and  _96
REMARK   34  A    between atoms: _96  and  _97
REMARK   35  A    between atoms: _96  and  _99
REMARK   36  A    between atoms: _99  and  _100
REMARK   37  A    between atoms: _104  and  _105
REMARK   38  A    between atoms: _110  and  _112
REMARK   39  A    between atoms: _112  and  _113
REMARK   40  A    between atoms: _112  and  _115
REMARK   41  A    between atoms: _115  and  _116
REMARK   42  A    between atoms: _122  and  _124
REMARK   43  A    between atoms: _124  and  _125
REMARK   44  A    between atoms: _124  and  _127
REMARK   45  A    between atoms: _127  and  _128
REMARK   46  A    between atoms: _128  and  _129
REMARK   47  A    between atoms: _129  and  _130
REMARK   48  A    between atoms: _130  and  _131
REMARK   49  A    between atoms: _135  and  _137
REMARK   50  A    between atoms: _137  and  _138
REMARK   51  A    between atoms: _137  and  _140
REMARK   52  A    between atoms: _140  and  _141
REMARK   53  A    between atoms: _143  and  _145
REMARK   54  A    between atoms: _145  and  _146
REMARK   55  A    between atoms: _145  and  _148
REMARK   56  A    between atoms: _148  and  _149
REMARK   57  A    between atoms: _149  and  _150
REMARK   58  A    between atoms: _153  and  _155
REMARK   59  A    between atoms: _155  and  _156
REMARK   60  A    between atoms: _155  and  _158
REMARK   61  A    between atoms: _158  and  _159
REMARK   62  A    between atoms: _159  and  _160
REMARK   63  A    between atoms: _160  and  _161
REMARK   64  A    between atoms: _170  and  _172
REMARK   65  A    between atoms: _172  and  _173
REMARK   66  A    between atoms: _172  and  _175
REMARK   67  A    between atoms: _175  and  _176
REMARK   68  A    between atoms: _182  and  _184
REMARK   69  A    between atoms: _184  and  _185
REMARK   70  A    between atoms: _184  and  _187
REMARK   71  A    between atoms: _187  and  _188
REMARK   72  A    between atoms: _194  and  _196
REMARK   73  A    between atoms: _196  and  _197
REMARK   74  A    between atoms: _196  and  _199
REMARK   75  A    between atoms: _199  and  _200
REMARK   76  A    between atoms: _203  and  _205
REMARK   77  A    between atoms: _205  and  _206
REMARK   78  A    between atoms: _205  and  _208
REMARK   79  A    between atoms: _208  and  _209
REMARK   80  A    between atoms: _215  and  _217
REMARK   81  A    between atoms: _217  and  _218
REMARK   82  A    between atoms: _217  and  _220
REMARK   83  A    between atoms: _220  and  _221
REMARK   84  A    between atoms: _221  and  _222
REMARK   85  A    between atoms: _222  and  _223
REMARK   86  A    between atoms: _232  and  _234
REMARK   87  A    between atoms: _234  and  _235
REMARK   88  A    between atoms: _234  and  _237
REMARK   89  A    between atoms: _237  and  _238
REMARK   90  A    between atoms: _241  and  _243
REMARK   91  A    between atoms: _243  and  _244
REMARK   92  A    between atoms: _243  and  _246
REMARK   93  A    between atoms: _246  and  _247
REMARK   94  A    between atoms: _252  and  _253
REMARK   95  A    between atoms: _255  and  _257
REMARK   96  A    between atoms: _257  and  _258
REMARK   97  A    between atoms: _257  and  _260
REMARK   98  A    between atoms: _260  and  _261
REMARK   99  A    between atoms: _266  and  _267
REMARK  100  A    between atoms: _269  and  _271
REMARK  101  A    between atoms: _271  and  _272
REMARK  102  A    between atoms: _271  and  _274
REMARK  103  A    between atoms: _274  and  _275
REMARK  104  A    between atoms: _285  and  _287
REMARK  105  A    between atoms: _287  and  _288
REMARK  106  A    between atoms: _287  and  _290
REMARK  107  A    between atoms: _290  and  _291
REMARK  108  A    between atoms: _296  and  _297
REMARK  109  A    between atoms: _299  and  _301
REMARK  110  A    between atoms: _301  and  _302
REMARK  111  A    between atoms: _301  and  _304
REMARK  112  A    between atoms: _304  and  _305
REMARK  113  A    between atoms: _305  and  _306
REMARK  114  A    between atoms: _306  and  _307
REMARK                            x       y       z     vdW  Elec       q    Type
REMARK                         _______ _______ _______ _____ _____    ______ ____
ROOT
ATOM      1  O   HOH     1      15.304  34.732  12.847  0.00  0.00    +0.000 OA
ENDROOT
TORSDOF 0
REMARK  Name = ../refined-set-2016/1ugp/1ugp_pocket.pdb
REMARK  114 active torsions:
REMARK  status: ('A' for Active; 'I' for Inactive)
REMARK    1  A    between atoms: _1  and  _3
REMARK    2  A    between atoms: _3  and  _4
REMARK    3  A    between atoms: _3  and  _6
REMARK    4  A    between atoms: _6  and  _7
REMARK    5  A    between atoms: _10  and  _12
REMARK    6  A    between atoms: _12  and  _13
REMARK    7  A    between atoms: _12  and  _15
REMARK    8  A    between atoms: _15  and  _16
REMARK    9  A    between atoms: _16  and  _17
REMARK   10  A    between atoms: _22  and  _24
REMARK   11  A    between atoms: _24  and  _25
REMARK   12  A    between atoms: _24  and  _27
REMARK   13  A    between atoms: _27  and  _28
REMARK   14  A    between atoms: _28  and  CO_316
REMARK   15  A    between atoms: _29  and  _31
REMARK   16  A    between atoms: _31  and  _32
REMARK   17  A    between atoms: _31  and  _34
REMARK   18  A    between atoms: _34  and  _35
REMARK   19  A    between atoms: _38  and  _40
REMARK   20  A    between atoms: _49  and  _52
REMARK   21  A    between atoms: _52  and  _53
REMARK   22  A    between atoms: _57  and  _60
REMARK   23  A    between atoms: _59  and  _62
REMARK   24  A    between atoms: _64  and  _66
REMARK   25  A    between atoms: _66  and  _67
REMARK   26  A    between atoms: _66  and  _69
REMARK   27  A    between atoms: _69  and  _70
REMARK   28  A    between atoms: _75  and  _76
REMARK   29  A    between atoms: _78  and  _80
REMARK   30  A    between atoms: _80  and  _81
REMARK   31  A    between atoms: _80  and  _83
REMARK   32  A    between atoms: _83  and  _84
REMARK   33  A    between atoms: _94  and  _96
REMARK   34  A    between atoms: _96  and  _97
REMARK   35  A    between atoms: _96  and  _99
REMARK   36  A    between atoms: _99  and  _100
REMARK   37  A    between atoms: _104  and  _105
REMARK   38  A    between atoms: _110  and  _112
REMARK   39  A    between atoms: _112  and  _113
REMARK   40  A    between atoms: _112  and  _115
REMARK   41  A    between atoms: _115  and  _116
REMARK   42  A    between atoms: _122  and  _124
REMARK   43  A    between atoms: _124  and  _125
REMARK   44  A    between atoms: _124  and  _127
REMARK   45  A    between atoms: _127  and  _128
REMARK   46  A    between atoms: _128  and  _129
REMARK   47  A    between atoms: _129  and  _130
REMARK   48  A    between atoms: _130  and  _131
REMARK   49  A    between atoms: _135  and  _137
REMARK   50  A    between atoms: _137  and  _138
REMARK   51  A    between atoms: _137  and  _140
REMARK   52  A    between atoms: _140  and  _141
REMARK   53  A    between atoms: _143  and  _145
REMARK   54  A    between atoms: _145  and  _146
REMARK   55  A    between atoms: _145  and  _148
REMARK   56  A    between atoms: _148  and  _149
REMARK   57  A    between atoms: _149  and  _150
REMARK   58  A    between atoms: _153  and  _155
REMARK   59  A    between atoms: _155  and  _156
REMARK   60  A    between atoms: _155  and  _158
REMARK   61  A    between atoms: _158  and  _159
REMARK   62  A    between atoms: _159  and  _160
REMARK   63  A    between atoms: _160  and  _161
REMARK   64  A    between atoms: _170  and  _172
REMARK   65  A    between atoms: _172  and  _173
REMARK   66  A    between atoms: _172  and  _175
REMARK   67  A    between atoms: _175  and  _176
REMARK   68  A    between atoms: _182  and  _184
REMARK   69  A    between atoms: _184  and  _185
REMARK   70  A    between atoms: _184  and  _187
REMARK   71  A    between atoms: _187  and  _188
REMARK   72  A    between atoms: _194  and  _196
REMARK   73  A    between atoms: _196  and  _197
REMARK   74  A    between atoms: _196  and  _199
REMARK   75  A    between atoms: _199  and  _200
REMARK   76  A    between atoms: _203  and  _205
REMARK   77  A    between atoms: _205  and  _206
REMARK   78  A    between atoms: _205  and  _208
REMARK   79  A    between atoms: _208  and  _209
REMARK   80  A    between atoms: _215  and  _217
REMARK   81  A    between atoms: _217  and  _218
REMARK   82  A    between atoms: _217  and  _220
REMARK   83  A    between atoms: _220  and  _221
REMARK   84  A    between atoms: _221  and  _222
REMARK   85  A    between atoms: _222  and  _223
REMARK   86  A    between atoms: _232  and  _234
REMARK   87  A    between atoms: _234  and  _235
REMARK   88  A    between atoms: _234  and  _237
REMARK   89  A    between atoms: _237  and  _238
REMARK   90  A    between atoms: _241  and  _243
REMARK   91  A    between atoms: _243  and  _244
REMARK   92  A    between atoms: _243  and  _246
REMARK   93  A    between atoms: _246  and  _247
REMARK   94  A    between atoms: _252  and  _253
REMARK   95  A    between atoms: _255  and  _257
REMARK   96  A    between atoms: _257  and  _258
REMARK   97  A    between atoms: _257  and  _260
REMARK   98  A    between atoms: _260  and  _261
REMARK   99  A    between atoms: _266  and  _267
REMARK  100  A    between atoms: _269  and  _271
REMARK  101  A    between atoms: _271  and  _272
REMARK  102  A    between atoms: _271  and  _274
REMARK  103  A    between atoms: _274  and  _275
REMARK  104  A    between atoms: _285  and  _287
REMARK  105  A    between atoms: _287  and  _288
REMARK  106  A    between atoms: _287  and  _290
REMARK  107  A    between atoms: _290  and  _291
REMARK  108  A    between atoms: _296  and  _297
REMARK  109  A    between atoms: _299  and  _301
REMARK  110  A    between atoms: _301  and  _302
REMARK  111  A    between atoms: _301  and  _304
REMARK  112  A    between atoms: _304  and  _305
REMARK  113  A    between atoms: _305  and  _306
REMARK  114  A    between atoms: _306  and  _307
REMARK                            x       y       z     vdW  Elec       q    Type
REMARK                         _______ _______ _______ _____ _____    ______ ____
ROOT
ATOM      1  O   HOH     1      17.377  37.627  18.319  0.00  0.00    +0.000 OA
ENDROOT
TORSDOF 0
REMARK  Name = ../refined-set-2016/1ugp/1ugp_pocket.pdb
REMARK  114 active torsions:
REMARK  status: ('A' for Active; 'I' for Inactive)
REMARK    1  A    between atoms: _1  and  _3
REMARK    2  A    between atoms: _3  and  _4
REMARK    3  A    between atoms: _3  and  _6
REMARK    4  A    between atoms: _6  and  _7
REMARK    5  A    between atoms: _10  and  _12
REMARK    6  A    between atoms: _12  and  _13
REMARK    7  A    between atoms: _12  and  _15
REMARK    8  A    between atoms: _15  and  _16
REMARK    9  A    between atoms: _16  and  _17
REMARK   10  A    between atoms: _22  and  _24
REMARK   11  A    between atoms: _24  and  _25
REMARK   12  A    between atoms: _24  and  _27
REMARK   13  A    between atoms: _27  and  _28
REMARK   14  A    between atoms: _28  and  CO_316
REMARK   15  A    between atoms: _29  and  _31
REMARK   16  A    between atoms: _31  and  _32
REMARK   17  A    between atoms: _31  and  _34
REMARK   18  A    between atoms: _34  and  _35
REMARK   19  A    between atoms: _38  and  _40
REMARK   20  A    between atoms: _49  and  _52
REMARK   21  A    between atoms: _52  and  _53
REMARK   22  A    between atoms: _57  and  _60
REMARK   23  A    between atoms: _59  and  _62
REMARK   24  A    between atoms: _64  and  _66
REMARK   25  A    between atoms: _66  and  _67
REMARK   26  A    between atoms: _66  and  _69
REMARK   27  A    between atoms: _69  and  _70
REMARK   28  A    between atoms: _75  and  _76
REMARK   29  A    between atoms: _78  and  _80
REMARK   30  A    between atoms: _80  and  _81
REMARK   31  A    between atoms: _80  and  _83
REMARK   32  A    between atoms: _83  and  _84
REMARK   33  A    between atoms: _94  and  _96
REMARK   34  A    between atoms: _96  and  _97
REMARK   35  A    between atoms: _96  and  _99
REMARK   36  A    between atoms: _99  and  _100
REMARK   37  A    between atoms: _104  and  _105
REMARK   38  A    between atoms: _110  and  _112
REMARK   39  A    between atoms: _112  and  _113
REMARK   40  A    between atoms: _112  and  _115
REMARK   41  A    between atoms: _115  and  _116
REMARK   42  A    between atoms: _122  and  _124
REMARK   43  A    between atoms: _124  and  _125
REMARK   44  A    between atoms: _124  and  _127
REMARK   45  A    between atoms: _127  and  _128
REMARK   46  A    between atoms: _128  and  _129
REMARK   47  A    between atoms: _129  and  _130
REMARK   48  A    between atoms: _130  and  _131
REMARK   49  A    between atoms: _135  and  _137
REMARK   50  A    between atoms: _137  and  _138
REMARK   51  A    between atoms: _137  and  _140
REMARK   52  A    between atoms: _140  and  _141
REMARK   53  A    between atoms: _143  and  _145
REMARK   54  A    between atoms: _145  and  _146
REMARK   55  A    between atoms: _145  and  _148
REMARK   56  A    between atoms: _148  and  _149
REMARK   57  A    between atoms: _149  and  _150
REMARK   58  A    between atoms: _153  and  _155
REMARK   59  A    between atoms: _155  and  _156
REMARK   60  A    between atoms: _155  and  _158
REMARK   61  A    between atoms: _158  and  _159
REMARK   62  A    between atoms: _159  and  _160
REMARK   63  A    between atoms: _160  and  _161
REMARK   64  A    between atoms: _170  and  _172
REMARK   65  A    between atoms: _172  and  _173
REMARK   66  A    between atoms: _172  and  _175
REMARK   67  A    between atoms: _175  and  _176
REMARK   68  A    between atoms: _182  and  _184
REMARK   69  A    between atoms: _184  and  _185
REMARK   70  A    between atoms: _184  and  _187
REMARK   71  A    between atoms: _187  and  _188
REMARK   72  A    between atoms: _194  and  _196
REMARK   73  A    between atoms: _196  and  _197
REMARK   74  A    between atoms: _196  and  _199
REMARK   75  A    between atoms: _199  and  _200
REMARK   76  A    between atoms: _203  and  _205
REMARK   77  A    between atoms: _205  and  _206
REMARK   78  A    between atoms: _205  and  _208
REMARK   79  A    between atoms: _208  and  _209
REMARK   80  A    between atoms: _215  and  _217
REMARK   81  A    between atoms: _217  and  _218
REMARK   82  A    between atoms: _217  and  _220
REMARK   83  A    between atoms: _220  and  _221
REMARK   84  A    between atoms: _221  and  _222
REMARK   85  A    between atoms: _222  and  _223
REMARK   86  A    between atoms: _232  and  _234
REMARK   87  A    between atoms: _234  and  _235
REMARK   88  A    between atoms: _234  and  _237
REMARK   89  A    between atoms: _237  and  _238
REMARK   90  A    between atoms: _241  and  _243
REMARK   91  A    between atoms: _243  and  _244
REMARK   92  A    between atoms: _243  and  _246
REMARK   93  A    between atoms: _246  and  _247
REMARK   94  A    between atoms: _252  and  _253
REMARK   95  A    between atoms: _255  and  _257
REMARK   96  A    between atoms: _257  and  _258
REMARK   97  A    between atoms: _257  and  _260
REMARK   98  A    between atoms: _260  and  _261
REMARK   99  A    between atoms: _266  and  _267
REMARK  100  A    between atoms: _269  and  _271
REMARK  101  A    between atoms: _271  and  _272
REMARK  102  A    between atoms: _271  and  _274
REMARK  103  A    between atoms: _274  and  _275
REMARK  104  A    between atoms: _285  and  _287
REMARK  105  A    between atoms: _287  and  _288
REMARK  106  A    between atoms: _287  and  _290
REMARK  107  A    between atoms: _290  and  _291
REMARK  108  A    between atoms: _296  and  _297
REMARK  109  A    between atoms: _299  and  _301
REMARK  110  A    between atoms: _301  and  _302
REMARK  111  A    between atoms: _301  and  _304
REMARK  112  A    between atoms: _304  and  _305
REMARK  113  A    between atoms: _305  and  _306
REMARK  114  A    between atoms: _306  and  _307
REMARK                            x       y       z     vdW  Elec       q    Type
REMARK                         _______ _______ _______ _____ _____    ______ ____
ROOT
ATOM      1  O   HOH     1      13.076  32.412  10.769  0.00  0.00    +0.000 OA
ENDROOT
TORSDOF 0
REMARK  Name = ../refined-set-2016/1ugp/1ugp_pocket.pdb
REMARK  114 active torsions:
REMARK  status: ('A' for Active; 'I' for Inactive)
REMARK    1  A    between atoms: _1  and  _3
REMARK    2  A    between atoms: _3  and  _4
REMARK    3  A    between atoms: _3  and  _6
REMARK    4  A    between atoms: _6  and  _7
REMARK    5  A    between atoms: _10  and  _12
REMARK    6  A    between atoms: _12  and  _13
REMARK    7  A    between atoms: _12  and  _15
REMARK    8  A    between atoms: _15  and  _16
REMARK    9  A    between atoms: _16  and  _17
REMARK   10  A    between atoms: _22  and  _24
REMARK   11  A    between atoms: _24  and  _25
REMARK   12  A    between atoms: _24  and  _27
REMARK   13  A    between atoms: _27  and  _28
REMARK   14  A    between atoms: _28  and  CO_316
REMARK   15  A    between atoms: _29  and  _31
REMARK   16  A    between atoms: _31  and  _32
REMARK   17  A    between atoms: _31  and  _34
REMARK   18  A    between atoms: _34  and  _35
REMARK   19  A    between atoms: _38  and  _40
REMARK   20  A    between atoms: _49  and  _52
REMARK   21  A    between atoms: _52  and  _53
REMARK   22  A    between atoms: _57  and  _60
REMARK   23  A    between atoms: _59  and  _62
REMARK   24  A    between atoms: _64  and  _66
REMARK   25  A    between atoms: _66  and  _67
REMARK   26  A    between atoms: _66  and  _69
REMARK   27  A    between atoms: _69  and  _70
REMARK   28  A    between atoms: _75  and  _76
REMARK   29  A    between atoms: _78  and  _80
REMARK   30  A    between atoms: _80  and  _81
REMARK   31  A    between atoms: _80  and  _83
REMARK   32  A    between atoms: _83  and  _84
REMARK   33  A    between atoms: _94  and  _96
REMARK   34  A    between atoms: _96  and  _97
REMARK   35  A    between atoms: _96  and  _99
REMARK   36  A    between atoms: _99  and  _100
REMARK   37  A    between atoms: _104  and  _105
REMARK   38  A    between atoms: _110  and  _112
REMARK   39  A    between atoms: _112  and  _113
REMARK   40  A    between atoms: _112  and  _115
REMARK   41  A    between atoms: _115  and  _116
REMARK   42  A    between atoms: _122  and  _124
REMARK   43  A    between atoms: _124  and  _125
REMARK   44  A    between atoms: _124  and  _127
REMARK   45  A    between atoms: _127  and  _128
REMARK   46  A    between atoms: _128  and  _129
REMARK   47  A    between atoms: _129  and  _130
REMARK   48  A    between atoms: _130  and  _131
REMARK   49  A    between atoms: _135  and  _137
REMARK   50  A    between atoms: _137  and  _138
REMARK   51  A    between atoms: _137  and  _140
REMARK   52  A    between atoms: _140  and  _141
REMARK   53  A    between atoms: _143  and  _145
REMARK   54  A    between atoms: _145  and  _146
REMARK   55  A    between atoms: _145  and  _148
REMARK   56  A    between atoms: _148  and  _149
REMARK   57  A    between atoms: _149  and  _150
REMARK   58  A    between atoms: _153  and  _155
REMARK   59  A    between atoms: _155  and  _156
REMARK   60  A    between atoms: _155  and  _158
REMARK   61  A    between atoms: _158  and  _159
REMARK   62  A    between atoms: _159  and  _160
REMARK   63  A    between atoms: _160  and  _161
REMARK   64  A    between atoms: _170  and  _172
REMARK   65  A    between atoms: _172  and  _173
REMARK   66  A    between atoms: _172  and  _175
REMARK   67  A    between atoms: _175  and  _176
REMARK   68  A    between atoms: _182  and  _184
REMARK   69  A    between atoms: _184  and  _185
REMARK   70  A    between atoms: _184  and  _187
REMARK   71  A    between atoms: _187  and  _188
REMARK   72  A    between atoms: _194  and  _196
REMARK   73  A    between atoms: _196  and  _197
REMARK   74  A    between atoms: _196  and  _199
REMARK   75  A    between atoms: _199  and  _200
REMARK   76  A    between atoms: _203  and  _205
REMARK   77  A    between atoms: _205  and  _206
REMARK   78  A    between atoms: _205  and  _208
REMARK   79  A    between atoms: _208  and  _209
REMARK   80  A    between atoms: _215  and  _217
REMARK   81  A    between atoms: _217  and  _218
REMARK   82  A    between atoms: _217  and  _220
REMARK   83  A    between atoms: _220  and  _221
REMARK   84  A    between atoms: _221  and  _222
REMARK   85  A    between atoms: _222  and  _223
REMARK   86  A    between atoms: _232  and  _234
REMARK   87  A    between atoms: _234  and  _235
REMARK   88  A    between atoms: _234  and  _237
REMARK   89  A    between atoms: _237  and  _238
REMARK   90  A    between atoms: _241  and  _243
REMARK   91  A    between atoms: _243  and  _244
REMARK   92  A    between atoms: _243  and  _246
REMARK   93  A    between atoms: _246  and  _247
REMARK   94  A    between atoms: _252  and  _253
REMARK   95  A    between atoms: _255  and  _257
REMARK   96  A    between atoms: _257  and  _258
REMARK   97  A    between atoms: _257  and  _260
REMARK   98  A    between atoms: _260  and  _261
REMARK   99  A    between atoms: _266  and  _267
REMARK  100  A    between atoms: _269  and  _271
REMARK  101  A    between atoms: _271  and  _272
REMARK  102  A    between atoms: _271  and  _274
REMARK  103  A    between atoms: _274  and  _275
REMARK  104  A    between atoms: _285  and  _287
REMARK  105  A    between atoms: _287  and  _288
REMARK  106  A    between atoms: _287  and  _290
REMARK  107  A    between atoms: _290  and  _291
REMARK  108  A    between atoms: _296  and  _297
REMARK  109  A    between atoms: _299  and  _301
REMARK  110  A    between atoms: _301  and  _302
REMARK  111  A    between atoms: _301  and  _304
REMARK  112  A    between atoms: _304  and  _305
REMARK  113  A    between atoms: _305  and  _306
REMARK  114  A    between atoms: _306  and  _307
REMARK                            x       y       z     vdW  Elec       q    Type
REMARK                         _______ _______ _______ _____ _____    ______ ____
ROOT
ATOM      1  O   HOH     1       2.225  32.190  15.781  0.00  0.00    +0.000 OA
ENDROOT
TORSDOF 0
REMARK  Name = ../refined-set-2016/1ugp/1ugp_pocket.pdb
REMARK  114 active torsions:
REMARK  status: ('A' for Active; 'I' for Inactive)
REMARK    1  A    between atoms: _1  and  _3
REMARK    2  A    between atoms: _3  and  _4
REMARK    3  A    between atoms: _3  and  _6
REMARK    4  A    between atoms: _6  and  _7
REMARK    5  A    between atoms: _10  and  _12
REMARK    6  A    between atoms: _12  and  _13
REMARK    7  A    between atoms: _12  and  _15
REMARK    8  A    between atoms: _15  and  _16
REMARK    9  A    between atoms: _16  and  _17
REMARK   10  A    between atoms: _22  and  _24
REMARK   11  A    between atoms: _24  and  _25
REMARK   12  A    between atoms: _24  and  _27
REMARK   13  A    between atoms: _27  and  _28
REMARK   14  A    between atoms: _28  and  CO_316
REMARK   15  A    between atoms: _29  and  _31
REMARK   16  A    between atoms: _31  and  _32
REMARK   17  A    between atoms: _31  and  _34
REMARK   18  A    between atoms: _34  and  _35
REMARK   19  A    between atoms: _38  and  _40
REMARK   20  A    between atoms: _49  and  _52
REMARK   21  A    between atoms: _52  and  _53
REMARK   22  A    between atoms: _57  and  _60
REMARK   23  A    between atoms: _59  and  _62
REMARK   24  A    between atoms: _64  and  _66
REMARK   25  A    between atoms: _66  and  _67
REMARK   26  A    between atoms: _66  and  _69
REMARK   27  A    between atoms: _69  and  _70
REMARK   28  A    between atoms: _75  and  _76
REMARK   29  A    between atoms: _78  and  _80
REMARK   30  A    between atoms: _80  and  _81
REMARK   31  A    between atoms: _80  and  _83
REMARK   32  A    between atoms: _83  and  _84
REMARK   33  A    between atoms: _94  and  _96
REMARK   34  A    between atoms: _96  and  _97
REMARK   35  A    between atoms: _96  and  _99
REMARK   36  A    between atoms: _99  and  _100
REMARK   37  A    between atoms: _104  and  _105
REMARK   38  A    between atoms: _110  and  _112
REMARK   39  A    between atoms: _112  and  _113
REMARK   40  A    between atoms: _112  and  _115
REMARK   41  A    between atoms: _115  and  _116
REMARK   42  A    between atoms: _122  and  _124
REMARK   43  A    between atoms: _124  and  _125
REMARK   44  A    between atoms: _124  and  _127
REMARK   45  A    between atoms: _127  and  _128
REMARK   46  A    between atoms: _128  and  _129
REMARK   47  A    between atoms: _129  and  _130
REMARK   48  A    between atoms: _130  and  _131
REMARK   49  A    between atoms: _135  and  _137
REMARK   50  A    between atoms: _137  and  _138
REMARK   51  A    between atoms: _137  and  _140
REMARK   52  A    between atoms: _140  and  _141
REMARK   53  A    between atoms: _143  and  _145
REMARK   54  A    between atoms: _145  and  _146
REMARK   55  A    between atoms: _145  and  _148
REMARK   56  A    between atoms: _148  and  _149
REMARK   57  A    between atoms: _149  and  _150
REMARK   58  A    between atoms: _153  and  _155
REMARK   59  A    between atoms: _155  and  _156
REMARK   60  A    between atoms: _155  and  _158
REMARK   61  A    between atoms: _158  and  _159
REMARK   62  A    between atoms: _159  and  _160
REMARK   63  A    between atoms: _160  and  _161
REMARK   64  A    between atoms: _170  and  _172
REMARK   65  A    between atoms: _172  and  _173
REMARK   66  A    between atoms: _172  and  _175
REMARK   67  A    between atoms: _175  and  _176
REMARK   68  A    between atoms: _182  and  _184
REMARK   69  A    between atoms: _184  and  _185
REMARK   70  A    between atoms: _184  and  _187
REMARK   71  A    between atoms: _187  and  _188
REMARK   72  A    between atoms: _194  and  _196
REMARK   73  A    between atoms: _196  and  _197
REMARK   74  A    between atoms: _196  and  _199
REMARK   75  A    between atoms: _199  and  _200
REMARK   76  A    between atoms: _203  and  _205
REMARK   77  A    between atoms: _205  and  _206
REMARK   78  A    between atoms: _205  and  _208
REMARK   79  A    between atoms: _208  and  _209
REMARK   80  A    between atoms: _215  and  _217
REMARK   81  A    between atoms: _217  and  _218
REMARK   82  A    between atoms: _217  and  _220
REMARK   83  A    between atoms: _220  and  _221
REMARK   84  A    between atoms: _221  and  _222
REMARK   85  A    between atoms: _222  and  _223
REMARK   86  A    between atoms: _232  and  _234
REMARK   87  A    between atoms: _234  and  _235
REMARK   88  A    between atoms: _234  and  _237
REMARK   89  A    between atoms: _237  and  _238
REMARK   90  A    between atoms: _241  and  _243
REMARK   91  A    between atoms: _243  and  _244
REMARK   92  A    between atoms: _243  and  _246
REMARK   93  A    between atoms: _246  and  _247
REMARK   94  A    between atoms: _252  and  _253
REMARK   95  A    between atoms: _255  and  _257
REMARK   96  A    between atoms: _257  and  _258
REMARK   97  A    between atoms: _257  and  _260
REMARK   98  A    between atoms: _260  and  _261
REMARK   99  A    between atoms: _266  and  _267
REMARK  100  A    between atoms: _269  and  _271
REMARK  101  A    between atoms: _271  and  _272
REMARK  102  A    between atoms: _271  and  _274
REMARK  103  A    between atoms: _274  and  _275
REMARK  104  A    between atoms: _285  and  _287
REMARK  105  A    between atoms: _287  and  _288
REMARK  106  A    between atoms: _287  and  _290
REMARK  107  A    between atoms: _290  and  _291
REMARK  108  A    between atoms: _296  and  _297
REMARK  109  A    between atoms: _299  and  _301
REMARK  110  A    between atoms: _301  and  _302
REMARK  111  A    between atoms: _301  and  _304
REMARK  112  A    between atoms: _304  and  _305
REMARK  113  A    between atoms: _305  and  _306
REMARK  114  A    between atoms: _306  and  _307
REMARK                            x       y       z     vdW  Elec       q    Type
REMARK                         _______ _______ _______ _____ _____    ______ ____
ROOT
ATOM      1  O   HOH     1      14.238  32.267  13.581  0.00  0.00    +0.000 OA
ENDROOT
TORSDOF 0
REMARK  Name = ../refined-set-2016/1ugp/1ugp_pocket.pdb
REMARK  114 active torsions:
REMARK  status: ('A' for Active; 'I' for Inactive)
REMARK    1  A    between atoms: _1  and  _3
REMARK    2  A    between atoms: _3  and  _4
REMARK    3  A    between atoms: _3  and  _6
REMARK    4  A    between atoms: _6  and  _7
REMARK    5  A    between atoms: _10  and  _12
REMARK    6  A    between atoms: _12  and  _13
REMARK    7  A    between atoms: _12  and  _15
REMARK    8  A    between atoms: _15  and  _16
REMARK    9  A    between atoms: _16  and  _17
REMARK   10  A    between atoms: _22  and  _24
REMARK   11  A    between atoms: _24  and  _25
REMARK   12  A    between atoms: _24  and  _27
REMARK   13  A    between atoms: _27  and  _28
REMARK   14  A    between atoms: _28  and  CO_316
REMARK   15  A    between atoms: _29  and  _31
REMARK   16  A    between atoms: _31  and  _32
REMARK   17  A    between atoms: _31  and  _34
REMARK   18  A    between atoms: _34  and  _35
REMARK   19  A    between atoms: _38  and  _40
REMARK   20  A    between atoms: _49  and  _52
REMARK   21  A    between atoms: _52  and  _53
REMARK   22  A    between atoms: _57  and  _60
REMARK   23  A    between atoms: _59  and  _62
REMARK   24  A    between atoms: _64  and  _66
REMARK   25  A    between atoms: _66  and  _67
REMARK   26  A    between atoms: _66  and  _69
REMARK   27  A    between atoms: _69  and  _70
REMARK   28  A    between atoms: _75  and  _76
REMARK   29  A    between atoms: _78  and  _80
REMARK   30  A    between atoms: _80  and  _81
REMARK   31  A    between atoms: _80  and  _83
REMARK   32  A    between atoms: _83  and  _84
REMARK   33  A    between atoms: _94  and  _96
REMARK   34  A    between atoms: _96  and  _97
REMARK   35  A    between atoms: _96  and  _99
REMARK   36  A    between atoms: _99  and  _100
REMARK   37  A    between atoms: _104  and  _105
REMARK   38  A    between atoms: _110  and  _112
REMARK   39  A    between atoms: _112  and  _113
REMARK   40  A    between atoms: _112  and  _115
REMARK   41  A    between atoms: _115  and  _116
REMARK   42  A    between atoms: _122  and  _124
REMARK   43  A    between atoms: _124  and  _125
REMARK   44  A    between atoms: _124  and  _127
REMARK   45  A    between atoms: _127  and  _128
REMARK   46  A    between atoms: _128  and  _129
REMARK   47  A    between atoms: _129  and  _130
REMARK   48  A    between atoms: _130  and  _131
REMARK   49  A    between atoms: _135  and  _137
REMARK   50  A    between atoms: _137  and  _138
REMARK   51  A    between atoms: _137  and  _140
REMARK   52  A    between atoms: _140  and  _141
REMARK   53  A    between atoms: _143  and  _145
REMARK   54  A    between atoms: _145  and  _146
REMARK   55  A    between atoms: _145  and  _148
REMARK   56  A    between atoms: _148  and  _149
REMARK   57  A    between atoms: _149  and  _150
REMARK   58  A    between atoms: _153  and  _155
REMARK   59  A    between atoms: _155  and  _156
REMARK   60  A    between atoms: _155  and  _158
REMARK   61  A    between atoms: _158  and  _159
REMARK   62  A    between atoms: _159  and  _160
REMARK   63  A    between atoms: _160  and  _161
REMARK   64  A    between atoms: _170  and  _172
REMARK   65  A    between atoms: _172  and  _173
REMARK   66  A    between atoms: _172  and  _175
REMARK   67  A    between atoms: _175  and  _176
REMARK   68  A    between atoms: _182  and  _184
REMARK   69  A    between atoms: _184  and  _185
REMARK   70  A    between atoms: _184  and  _187
REMARK   71  A    between atoms: _187  and  _188
REMARK   72  A    between atoms: _194  and  _196
REMARK   73  A    between atoms: _196  and  _197
REMARK   74  A    between atoms: _196  and  _199
REMARK   75  A    between atoms: _199  and  _200
REMARK   76  A    between atoms: _203  and  _205
REMARK   77  A    between atoms: _205  and  _206
REMARK   78  A    between atoms: _205  and  _208
REMARK   79  A    between atoms: _208  and  _209
REMARK   80  A    between atoms: _215  and  _217
REMARK   81  A    between atoms: _217  and  _218
REMARK   82  A    between atoms: _217  and  _220
REMARK   83  A    between atoms: _220  and  _221
REMARK   84  A    between atoms: _221  and  _222
REMARK   85  A    between atoms: _222  and  _223
REMARK   86  A    between atoms: _232  and  _234
REMARK   87  A    between atoms: _234  and  _235
REMARK   88  A    between atoms: _234  and  _237
REMARK   89  A    between atoms: _237  and  _238
REMARK   90  A    between atoms: _241  and  _243
REMARK   91  A    between atoms: _243  and  _244
REMARK   92  A    between atoms: _243  and  _246
REMARK   93  A    between atoms: _246  and  _247
REMARK   94  A    between atoms: _252  and  _253
REMARK   95  A    between atoms: _255  and  _257
REMARK   96  A    between atoms: _257  and  _258
REMARK   97  A    between atoms: _257  and  _260
REMARK   98  A    between atoms: _260  and  _261
REMARK   99  A    between atoms: _266  and  _267
REMARK  100  A    between atoms: _269  and  _271
REMARK  101  A    between atoms: _271  and  _272
REMARK  102  A    between atoms: _271  and  _274
REMARK  103  A    between atoms: _274  and  _275
REMARK  104  A    between atoms: _285  and  _287
REMARK  105  A    between atoms: _287  and  _288
REMARK  106  A    between atoms: _287  and  _290
REMARK  107  A    between atoms: _290  and  _291
REMARK  108  A    between atoms: _296  and  _297
REMARK  109  A    between atoms: _299  and  _301
REMARK  110  A    between atoms: _301  and  _302
REMARK  111  A    between atoms: _301  and  _304
REMARK  112  A    between atoms: _304  and  _305
REMARK  113  A    between atoms: _305  and  _306
REMARK  114  A    between atoms: _306  and  _307
REMARK                            x       y       z     vdW  Elec       q    Type
REMARK                         _______ _______ _______ _____ _____    ______ ____
ROOT
ATOM      1  O   HOH     1       4.677  33.552  16.133  0.00  0.00    +0.000 OA
ENDROOT
TORSDOF 0
REMARK  Name = ../refined-set-2016/1ugp/1ugp_pocket.pdb
REMARK  114 active torsions:
REMARK  status: ('A' for Active; 'I' for Inactive)
REMARK    1  A    between atoms: _1  and  _3
REMARK    2  A    between atoms: _3  and  _4
REMARK    3  A    between atoms: _3  and  _6
REMARK    4  A    between atoms: _6  and  _7
REMARK    5  A    between atoms: _10  and  _12
REMARK    6  A    between atoms: _12  and  _13
REMARK    7  A    between atoms: _12  and  _15
REMARK    8  A    between atoms: _15  and  _16
REMARK    9  A    between atoms: _16  and  _17
REMARK   10  A    between atoms: _22  and  _24
REMARK   11  A    between atoms: _24  and  _25
REMARK   12  A    between atoms: _24  and  _27
REMARK   13  A    between atoms: _27  and  _28
REMARK   14  A    between atoms: _28  and  CO_316
REMARK   15  A    between atoms: _29  and  _31
REMARK   16  A    between atoms: _31  and  _32
REMARK   17  A    between atoms: _31  and  _34
REMARK   18  A    between atoms: _34  and  _35
REMARK   19  A    between atoms: _38  and  _40
REMARK   20  A    between atoms: _49  and  _52
REMARK   21  A    between atoms: _52  and  _53
REMARK   22  A    between atoms: _57  and  _60
REMARK   23  A    between atoms: _59  and  _62
REMARK   24  A    between atoms: _64  and  _66
REMARK   25  A    between atoms: _66  and  _67
REMARK   26  A    between atoms: _66  and  _69
REMARK   27  A    between atoms: _69  and  _70
REMARK   28  A    between atoms: _75  and  _76
REMARK   29  A    between atoms: _78  and  _80
REMARK   30  A    between atoms: _80  and  _81
REMARK   31  A    between atoms: _80  and  _83
REMARK   32  A    between atoms: _83  and  _84
REMARK   33  A    between atoms: _94  and  _96
REMARK   34  A    between atoms: _96  and  _97
REMARK   35  A    between atoms: _96  and  _99
REMARK   36  A    between atoms: _99  and  _100
REMARK   37  A    between atoms: _104  and  _105
REMARK   38  A    between atoms: _110  and  _112
REMARK   39  A    between atoms: _112  and  _113
REMARK   40  A    between atoms: _112  and  _115
REMARK   41  A    between atoms: _115  and  _116
REMARK   42  A    between atoms: _122  and  _124
REMARK   43  A    between atoms: _124  and  _125
REMARK   44  A    between atoms: _124  and  _127
REMARK   45  A    between atoms: _127  and  _128
REMARK   46  A    between atoms: _128  and  _129
REMARK   47  A    between atoms: _129  and  _130
REMARK   48  A    between atoms: _130  and  _131
REMARK   49  A    between atoms: _135  and  _137
REMARK   50  A    between atoms: _137  and  _138
REMARK   51  A    between atoms: _137  and  _140
REMARK   52  A    between atoms: _140  and  _141
REMARK   53  A    between atoms: _143  and  _145
REMARK   54  A    between atoms: _145  and  _146
REMARK   55  A    between atoms: _145  and  _148
REMARK   56  A    between atoms: _148  and  _149
REMARK   57  A    between atoms: _149  and  _150
REMARK   58  A    between atoms: _153  and  _155
REMARK   59  A    between atoms: _155  and  _156
REMARK   60  A    between atoms: _155  and  _158
REMARK   61  A    between atoms: _158  and  _159
REMARK   62  A    between atoms: _159  and  _160
REMARK   63  A    between atoms: _160  and  _161
REMARK   64  A    between atoms: _170  and  _172
REMARK   65  A    between atoms: _172  and  _173
REMARK   66  A    between atoms: _172  and  _175
REMARK   67  A    between atoms: _175  and  _176
REMARK   68  A    between atoms: _182  and  _184
REMARK   69  A    between atoms: _184  and  _185
REMARK   70  A    between atoms: _184  and  _187
REMARK   71  A    between atoms: _187  and  _188
REMARK   72  A    between atoms: _194  and  _196
REMARK   73  A    between atoms: _196  and  _197
REMARK   74  A    between atoms: _196  and  _199
REMARK   75  A    between atoms: _199  and  _200
REMARK   76  A    between atoms: _203  and  _205
REMARK   77  A    between atoms: _205  and  _206
REMARK   78  A    between atoms: _205  and  _208
REMARK   79  A    between atoms: _208  and  _209
REMARK   80  A    between atoms: _215  and  _217
REMARK   81  A    between atoms: _217  and  _218
REMARK   82  A    between atoms: _217  and  _220
REMARK   83  A    between atoms: _220  and  _221
REMARK   84  A    between atoms: _221  and  _222
REMARK   85  A    between atoms: _222  and  _223
REMARK   86  A    between atoms: _232  and  _234
REMARK   87  A    between atoms: _234  and  _235
REMARK   88  A    between atoms: _234  and  _237
REMARK   89  A    between atoms: _237  and  _238
REMARK   90  A    between atoms: _241  and  _243
REMARK   91  A    between atoms: _243  and  _244
REMARK   92  A    between atoms: _243  and  _246
REMARK   93  A    between atoms: _246  and  _247
REMARK   94  A    between atoms: _252  and  _253
REMARK   95  A    between atoms: _255  and  _257
REMARK   96  A    between atoms: _257  and  _258
REMARK   97  A    between atoms: _257  and  _260
REMARK   98  A    between atoms: _260  and  _261
REMARK   99  A    between atoms: _266  and  _267
REMARK  100  A    between atoms: _269  and  _271
REMARK  101  A    between atoms: _271  and  _272
REMARK  102  A    between atoms: _271  and  _274
REMARK  103  A    between atoms: _274  and  _275
REMARK  104  A    between atoms: _285  and  _287
REMARK  105  A    between atoms: _287  and  _288
REMARK  106  A    between atoms: _287  and  _290
REMARK  107  A    between atoms: _290  and  _291
REMARK  108  A    between atoms: _296  and  _297
REMARK  109  A    between atoms: _299  and  _301
REMARK  110  A    between atoms: _301  and  _302
REMARK  111  A    between atoms: _301  and  _304
REMARK  112  A    between atoms: _304  and  _305
REMARK  113  A    between atoms: _305  and  _306
REMARK  114  A    between atoms: _306  and  _307
REMARK                            x       y       z     vdW  Elec       q    Type
REMARK                         _______ _______ _______ _____ _____    ______ ____
ROOT
ATOM      1  O   HOH     1       9.659  31.696  14.289  0.00  0.00    +0.000 OA
ENDROOT
TORSDOF 0
REMARK  Name = ../refined-set-2016/1ugp/1ugp_pocket.pdb
REMARK  114 active torsions:
REMARK  status: ('A' for Active; 'I' for Inactive)
REMARK    1  A    between atoms: _1  and  _3
REMARK    2  A    between atoms: _3  and  _4
REMARK    3  A    between atoms: _3  and  _6
REMARK    4  A    between atoms: _6  and  _7
REMARK    5  A    between atoms: _10  and  _12
REMARK    6  A    between atoms: _12  and  _13
REMARK    7  A    between atoms: _12  and  _15
REMARK    8  A    between atoms: _15  and  _16
REMARK    9  A    between atoms: _16  and  _17
REMARK   10  A    between atoms: _22  and  _24
REMARK   11  A    between atoms: _24  and  _25
REMARK   12  A    between atoms: _24  and  _27
REMARK   13  A    between atoms: _27  and  _28
REMARK   14  A    between atoms: _28  and  CO_316
REMARK   15  A    between atoms: _29  and  _31
REMARK   16  A    between atoms: _31  and  _32
REMARK   17  A    between atoms: _31  and  _34
REMARK   18  A    between atoms: _34  and  _35
REMARK   19  A    between atoms: _38  and  _40
REMARK   20  A    between atoms: _49  and  _52
REMARK   21  A    between atoms: _52  and  _53
REMARK   22  A    between atoms: _57  and  _60
REMARK   23  A    between atoms: _59  and  _62
REMARK   24  A    between atoms: _64  and  _66
REMARK   25  A    between atoms: _66  and  _67
REMARK   26  A    between atoms: _66  and  _69
REMARK   27  A    between atoms: _69  and  _70
REMARK   28  A    between atoms: _75  and  _76
REMARK   29  A    between atoms: _78  and  _80
REMARK   30  A    between atoms: _80  and  _81
REMARK   31  A    between atoms: _80  and  _83
REMARK   32  A    between atoms: _83  and  _84
REMARK   33  A    between atoms: _94  and  _96
REMARK   34  A    between atoms: _96  and  _97
REMARK   35  A    between atoms: _96  and  _99
REMARK   36  A    between atoms: _99  and  _100
REMARK   37  A    between atoms: _104  and  _105
REMARK   38  A    between atoms: _110  and  _112
REMARK   39  A    between atoms: _112  and  _113
REMARK   40  A    between atoms: _112  and  _115
REMARK   41  A    between atoms: _115  and  _116
REMARK   42  A    between atoms: _122  and  _124
REMARK   43  A    between atoms: _124  and  _125
REMARK   44  A    between atoms: _124  and  _127
REMARK   45  A    between atoms: _127  and  _128
REMARK   46  A    between atoms: _128  and  _129
REMARK   47  A    between atoms: _129  and  _130
REMARK   48  A    between atoms: _130  and  _131
REMARK   49  A    between atoms: _135  and  _137
REMARK   50  A    between atoms: _137  and  _138
REMARK   51  A    between atoms: _137  and  _140
REMARK   52  A    between atoms: _140  and  _141
REMARK   53  A    between atoms: _143  and  _145
REMARK   54  A    between atoms: _145  and  _146
REMARK   55  A    between atoms: _145  and  _148
REMARK   56  A    between atoms: _148  and  _149
REMARK   57  A    between atoms: _149  and  _150
REMARK   58  A    between atoms: _153  and  _155
REMARK   59  A    between atoms: _155  and  _156
REMARK   60  A    between atoms: _155  and  _158
REMARK   61  A    between atoms: _158  and  _159
REMARK   62  A    between atoms: _159  and  _160
REMARK   63  A    between atoms: _160  and  _161
REMARK   64  A    between atoms: _170  and  _172
REMARK   65  A    between atoms: _172  and  _173
REMARK   66  A    between atoms: _172  and  _175
REMARK   67  A    between atoms: _175  and  _176
REMARK   68  A    between atoms: _182  and  _184
REMARK   69  A    between atoms: _184  and  _185
REMARK   70  A    between atoms: _184  and  _187
REMARK   71  A    between atoms: _187  and  _188
REMARK   72  A    between atoms: _194  and  _196
REMARK   73  A    between atoms: _196  and  _197
REMARK   74  A    between atoms: _196  and  _199
REMARK   75  A    between atoms: _199  and  _200
REMARK   76  A    between atoms: _203  and  _205
REMARK   77  A    between atoms: _205  and  _206
REMARK   78  A    between atoms: _205  and  _208
REMARK   79  A    between atoms: _208  and  _209
REMARK   80  A    between atoms: _215  and  _217
REMARK   81  A    between atoms: _217  and  _218
REMARK   82  A    between atoms: _217  and  _220
REMARK   83  A    between atoms: _220  and  _221
REMARK   84  A    between atoms: _221  and  _222
REMARK   85  A    between atoms: _222  and  _223
REMARK   86  A    between atoms: _232  and  _234
REMARK   87  A    between atoms: _234  and  _235
REMARK   88  A    between atoms: _234  and  _237
REMARK   89  A    between atoms: _237  and  _238
REMARK   90  A    between atoms: _241  and  _243
REMARK   91  A    between atoms: _243  and  _244
REMARK   92  A    between atoms: _243  and  _246
REMARK   93  A    between atoms: _246  and  _247
REMARK   94  A    between atoms: _252  and  _253
REMARK   95  A    between atoms: _255  and  _257
REMARK   96  A    between atoms: _257  and  _258
REMARK   97  A    between atoms: _257  and  _260
REMARK   98  A    between atoms: _260  and  _261
REMARK   99  A    between atoms: _266  and  _267
REMARK  100  A    between atoms: _269  and  _271
REMARK  101  A    between atoms: _271  and  _272
REMARK  102  A    between atoms: _271  and  _274
REMARK  103  A    between atoms: _274  and  _275
REMARK  104  A    between atoms: _285  and  _287
REMARK  105  A    between atoms: _287  and  _288
REMARK  106  A    between atoms: _287  and  _290
REMARK  107  A    between atoms: _290  and  _291
REMARK  108  A    between atoms: _296  and  _297
REMARK  109  A    between atoms: _299  and  _301
REMARK  110  A    between atoms: _301  and  _302
REMARK  111  A    between atoms: _301  and  _304
REMARK  112  A    between atoms: _304  and  _305
REMARK  113  A    between atoms: _305  and  _306
REMARK  114  A    between atoms: _306  and  _307
REMARK                            x       y       z     vdW  Elec       q    Type
REMARK                         _______ _______ _______ _____ _____    ______ ____
ROOT
ATOM      1  O   HOH     1      10.196  30.659  11.662  0.00  0.00    +0.000 OA
ENDROOT
TORSDOF 0
REMARK  Name = ../refined-set-2016/1ugp/1ugp_pocket.pdb
REMARK  114 active torsions:
REMARK  status: ('A' for Active; 'I' for Inactive)
REMARK    1  A    between atoms: _1  and  _3
REMARK    2  A    between atoms: _3  and  _4
REMARK    3  A    between atoms: _3  and  _6
REMARK    4  A    between atoms: _6  and  _7
REMARK    5  A    between atoms: _10  and  _12
REMARK    6  A    between atoms: _12  and  _13
REMARK    7  A    between atoms: _12  and  _15
REMARK    8  A    between atoms: _15  and  _16
REMARK    9  A    between atoms: _16  and  _17
REMARK   10  A    between atoms: _22  and  _24
REMARK   11  A    between atoms: _24  and  _25
REMARK   12  A    between atoms: _24  and  _27
REMARK   13  A    between atoms: _27  and  _28
REMARK   14  A    between atoms: _28  and  CO_316
REMARK   15  A    between atoms: _29  and  _31
REMARK   16  A    between atoms: _31  and  _32
REMARK   17  A    between atoms: _31  and  _34
REMARK   18  A    between atoms: _34  and  _35
REMARK   19  A    between atoms: _38  and  _40
REMARK   20  A    between atoms: _49  and  _52
REMARK   21  A    between atoms: _52  and  _53
REMARK   22  A    between atoms: _57  and  _60
REMARK   23  A    between atoms: _59  and  _62
REMARK   24  A    between atoms: _64  and  _66
REMARK   25  A    between atoms: _66  and  _67
REMARK   26  A    between atoms: _66  and  _69
REMARK   27  A    between atoms: _69  and  _70
REMARK   28  A    between atoms: _75  and  _76
REMARK   29  A    between atoms: _78  and  _80
REMARK   30  A    between atoms: _80  and  _81
REMARK   31  A    between atoms: _80  and  _83
REMARK   32  A    between atoms: _83  and  _84
REMARK   33  A    between atoms: _94  and  _96
REMARK   34  A    between atoms: _96  and  _97
REMARK   35  A    between atoms: _96  and  _99
REMARK   36  A    between atoms: _99  and  _100
REMARK   37  A    between atoms: _104  and  _105
REMARK   38  A    between atoms: _110  and  _112
REMARK   39  A    between atoms: _112  and  _113
REMARK   40  A    between atoms: _112  and  _115
REMARK   41  A    between atoms: _115  and  _116
REMARK   42  A    between atoms: _122  and  _124
REMARK   43  A    between atoms: _124  and  _125
REMARK   44  A    between atoms: _124  and  _127
REMARK   45  A    between atoms: _127  and  _128
REMARK   46  A    between atoms: _128  and  _129
REMARK   47  A    between atoms: _129  and  _130
REMARK   48  A    between atoms: _130  and  _131
REMARK   49  A    between atoms: _135  and  _137
REMARK   50  A    between atoms: _137  and  _138
REMARK   51  A    between atoms: _137  and  _140
REMARK   52  A    between atoms: _140  and  _141
REMARK   53  A    between atoms: _143  and  _145
REMARK   54  A    between atoms: _145  and  _146
REMARK   55  A    between atoms: _145  and  _148
REMARK   56  A    between atoms: _148  and  _149
REMARK   57  A    between atoms: _149  and  _150
REMARK   58  A    between atoms: _153  and  _155
REMARK   59  A    between atoms: _155  and  _156
REMARK   60  A    between atoms: _155  and  _158
REMARK   61  A    between atoms: _158  and  _159
REMARK   62  A    between atoms: _159  and  _160
REMARK   63  A    between atoms: _160  and  _161
REMARK   64  A    between atoms: _170  and  _172
REMARK   65  A    between atoms: _172  and  _173
REMARK   66  A    between atoms: _172  and  _175
REMARK   67  A    between atoms: _175  and  _176
REMARK   68  A    between atoms: _182  and  _184
REMARK   69  A    between atoms: _184  and  _185
REMARK   70  A    between atoms: _184  and  _187
REMARK   71  A    between atoms: _187  and  _188
REMARK   72  A    between atoms: _194  and  _196
REMARK   73  A    between atoms: _196  and  _197
REMARK   74  A    between atoms: _196  and  _199
REMARK   75  A    between atoms: _199  and  _200
REMARK   76  A    between atoms: _203  and  _205
REMARK   77  A    between atoms: _205  and  _206
REMARK   78  A    between atoms: _205  and  _208
REMARK   79  A    between atoms: _208  and  _209
REMARK   80  A    between atoms: _215  and  _217
REMARK   81  A    between atoms: _217  and  _218
REMARK   82  A    between atoms: _217  and  _220
REMARK   83  A    between atoms: _220  and  _221
REMARK   84  A    between atoms: _221  and  _222
REMARK   85  A    between atoms: _222  and  _223
REMARK   86  A    between atoms: _232  and  _234
REMARK   87  A    between atoms: _234  and  _235
REMARK   88  A    between atoms: _234  and  _237
REMARK   89  A    between atoms: _237  and  _238
REMARK   90  A    between atoms: _241  and  _243
REMARK   91  A    between atoms: _243  and  _244
REMARK   92  A    between atoms: _243  and  _246
REMARK   93  A    between atoms: _246  and  _247
REMARK   94  A    between atoms: _252  and  _253
REMARK   95  A    between atoms: _255  and  _257
REMARK   96  A    between atoms: _257  and  _258
REMARK   97  A    between atoms: _257  and  _260
REMARK   98  A    between atoms: _260  and  _261
REMARK   99  A    between atoms: _266  and  _267
REMARK  100  A    between atoms: _269  and  _271
REMARK  101  A    between atoms: _271  and  _272
REMARK  102  A    between atoms: _271  and  _274
REMARK  103  A    between atoms: _274  and  _275
REMARK  104  A    between atoms: _285  and  _287
REMARK  105  A    between atoms: _287  and  _288
REMARK  106  A    between atoms: _287  and  _290
REMARK  107  A    between atoms: _290  and  _291
REMARK  108  A    between atoms: _296  and  _297
REMARK  109  A    between atoms: _299  and  _301
REMARK  110  A    between atoms: _301  and  _302
REMARK  111  A    between atoms: _301  and  _304
REMARK  112  A    between atoms: _304  and  _305
REMARK  113  A    between atoms: _305  and  _306
REMARK  114  A    between atoms: _306  and  _307
REMARK                            x       y       z     vdW  Elec       q    Type
REMARK                         _______ _______ _______ _____ _____    ______ ____
ROOT
ATOM      1  O   HOH     1      11.737  39.124  25.152  0.00  0.00    +0.000 OA
ENDROOT
TORSDOF 0
