REMARK  Name = ../refined-set-2016/1z6e/1z6e_pocket.pdb
REMARK  242 active torsions:
REMARK  status: ('A' for Active; 'I' for Inactive)
REMARK    1  A    between atoms: _1  and  _5
REMARK    2  A    between atoms: _5  and  _6
REMARK    3  A    between atoms: _5  and  _8
REMARK    4  A    between atoms: _8  and  _9
REMARK    5  A    between atoms: _12  and  _14
REMARK    6  A    between atoms: _14  and  _15
REMARK    7  A    between atoms: _14  and  _17
REMARK    8  A    between atoms: _20  and  _22
REMARK    9  A    between atoms: _22  and  _23
REMARK   10  A    between atoms: _22  and  _25
REMARK   11  A    between atoms: _25  and  _26
REMARK   12  A    between atoms: _31  and  _33
REMARK   13  A    between atoms: _33  and  _34
REMARK   14  A    between atoms: _33  and  _36
REMARK   15  A    between atoms: _38  and  _40
REMARK   16  A    between atoms: _40  and  _41
REMARK   17  A    between atoms: _40  and  _43
REMARK   18  A    between atoms: _43  and  _44
REMARK   19  A    between atoms: _44  and  _45
REMARK   20  A    between atoms: _50  and  _52
REMARK   21  A    between atoms: _52  and  _53
REMARK   22  A    between atoms: _52  and  _55
REMARK   23  A    between atoms: _55  and  _56
REMARK   24  A    between atoms: _62  and  _64
REMARK   25  A    between atoms: _64  and  _65
REMARK   26  A    between atoms: _64  and  _67
REMARK   27  A    between atoms: _67  and  _68
REMARK   28  A    between atoms: _71  and  _73
REMARK   29  A    between atoms: _73  and  _74
REMARK   30  A    between atoms: _73  and  _76
REMARK   31  A    between atoms: _76  and  _77
REMARK   32  A    between atoms: _77  and  _78
REMARK   33  A    between atoms: _78  and  _79
REMARK   34  A    between atoms: _79  and  _80
REMARK   35  A    between atoms: _84  and  _86
REMARK   36  A    between atoms: _86  and  _87
REMARK   37  A    between atoms: _86  and  _89
REMARK   38  A    between atoms: _89  and  _90
REMARK   39  A    between atoms: _90  and  _91
REMARK   40  A    between atoms: _94  and  _96
REMARK   41  A    between atoms: _96  and  _97
REMARK   42  A    between atoms: _96  and  _99
REMARK   43  A    between atoms: _99  and  _100
REMARK   44  A    between atoms: _103  and  _105
REMARK   45  A    between atoms: _105  and  _106
REMARK   46  A    between atoms: _105  and  _108
REMARK   47  A    between atoms: _108  and  _109
REMARK   48  A    between atoms: _114  and  _115
REMARK   49  A    between atoms: _117  and  _119
REMARK   50  A    between atoms: _119  and  _120
REMARK   51  A    between atoms: _119  and  _122
REMARK   52  A    between atoms: _122  and  _123
REMARK   53  A    between atoms: _126  and  _128
REMARK   54  A    between atoms: _128  and  _129
REMARK   55  A    between atoms: _128  and  _131
REMARK   56  A    between atoms: _131  and  _132
REMARK   57  A    between atoms: _135  and  _137
REMARK   58  A    between atoms: _137  and  _138
REMARK   59  A    between atoms: _137  and  _140
REMARK   60  A    between atoms: _143  and  _145
REMARK   61  A    between atoms: _145  and  _146
REMARK   62  A    between atoms: _148  and  _150
REMARK   63  A    between atoms: _150  and  _151
REMARK   64  A    between atoms: _150  and  _153
REMARK   65  A    between atoms: _153  and  _154
REMARK   66  A    between atoms: _154  and  _155
REMARK   67  A    between atoms: _155  and  _156
REMARK   68  A    between atoms: _165  and  _167
REMARK   69  A    between atoms: _167  and  _168
REMARK   70  A    between atoms: _167  and  _170
REMARK   71  A    between atoms: _170  and  _171
REMARK   72  A    between atoms: _176  and  _178
REMARK   73  A    between atoms: _178  and  _179
REMARK   74  A    between atoms: _178  and  _181
REMARK   75  A    between atoms: _181  and  _182
REMARK   76  A    between atoms: _182  and  _183
REMARK   77  A    between atoms: _186  and  _188
REMARK   78  A    between atoms: _188  and  _189
REMARK   79  A    between atoms: _188  and  _191
REMARK   80  A    between atoms: _191  and  _192
REMARK   81  A    between atoms: _192  and  _193
REMARK   82  A    between atoms: _193  and  _194
REMARK   83  A    between atoms: _194  and  _195
REMARK   84  A    between atoms: _199  and  _201
REMARK   85  A    between atoms: _201  and  _202
REMARK   86  A    between atoms: _204  and  _206
REMARK   87  A    between atoms: _206  and  _207
REMARK   88  A    between atoms: _206  and  _209
REMARK   89  A    between atoms: _209  and  _210
REMARK   90  A    between atoms: _210  and  _211
REMARK   91  A    between atoms: _211  and  _212
REMARK   92  A    between atoms: _221  and  _223
REMARK   93  A    between atoms: _223  and  _224
REMARK   94  A    between atoms: _223  and  _226
REMARK   95  A    between atoms: _226  and  _227
REMARK   96  A    between atoms: _227  and  _228
REMARK   97  A    between atoms: _233  and  _235
REMARK   98  A    between atoms: _235  and  _236
REMARK   99  A    between atoms: _235  and  _238
REMARK  100  A    between atoms: _238  and  _239
REMARK  101  A    between atoms: _242  and  _244
REMARK  102  A    between atoms: _244  and  _245
REMARK  103  A    between atoms: _244  and  _247
REMARK  104  A    between atoms: _250  and  _252
REMARK  105  A    between atoms: _252  and  _253
REMARK  106  A    between atoms: _252  and  _255
REMARK  107  A    between atoms: _255  and  _256
REMARK  108  A    between atoms: _258  and  _260
REMARK  109  A    between atoms: _260  and  _261
REMARK  110  A    between atoms: _260  and  _263
REMARK  111  A    between atoms: _263  and  _264
REMARK  112  A    between atoms: _266  and  _268
REMARK  113  A    between atoms: _268  and  _269
REMARK  114  A    between atoms: _268  and  _271
REMARK  115  A    between atoms: _271  and  _272
REMARK  116  A    between atoms: _278  and  _280
REMARK  117  A    between atoms: _280  and  _281
REMARK  118  A    between atoms: _280  and  _283
REMARK  119  A    between atoms: _283  and  _284
REMARK  120  A    between atoms: _287  and  _289
REMARK  121  A    between atoms: _289  and  _290
REMARK  122  A    between atoms: _289  and  _292
REMARK  123  A    between atoms: _292  and  _293
REMARK  124  A    between atoms: _296  and  _298
REMARK  125  A    between atoms: _298  and  _299
REMARK  126  A    between atoms: _298  and  _301
REMARK  127  A    between atoms: _301  and  _302
REMARK  128  A    between atoms: _305  and  _307
REMARK  129  A    between atoms: _307  and  _308
REMARK  130  A    between atoms: _307  and  _310
REMARK  131  A    between atoms: _310  and  _311
REMARK  132  A    between atoms: _311  and  _312
REMARK  133  A    between atoms: _314  and  _316
REMARK  134  A    between atoms: _316  and  _317
REMARK  135  A    between atoms: _316  and  _319
REMARK  136  A    between atoms: _321  and  _323
REMARK  137  A    between atoms: _323  and  _324
REMARK  138  A    between atoms: _327  and  _329
REMARK  139  A    between atoms: _329  and  _330
REMARK  140  A    between atoms: _332  and  _334
REMARK  141  A    between atoms: _334  and  _335
REMARK  142  A    between atoms: _334  and  _337
REMARK  143  A    between atoms: _337  and  _338
REMARK  144  A    between atoms: _343  and  _344
REMARK  145  A    between atoms: _346  and  _348
REMARK  146  A    between atoms: _348  and  _349
REMARK  147  A    between atoms: _348  and  _351
REMARK  148  A    between atoms: _351  and  _352
REMARK  149  A    between atoms: _352  and  _353
REMARK  150  A    between atoms: _356  and  _358
REMARK  151  A    between atoms: _358  and  _359
REMARK  152  A    between atoms: _358  and  _361
REMARK  153  A    between atoms: _361  and  _362
REMARK  154  A    between atoms: _365  and  _367
REMARK  155  A    between atoms: _367  and  _368
REMARK  156  A    between atoms: _371  and  _373
REMARK  157  A    between atoms: _373  and  _374
REMARK  158  A    between atoms: _373  and  _376
REMARK  159  A    between atoms: _376  and  _377
REMARK  160  A    between atoms: _377  and  _500
REMARK  161  A    between atoms: _378  and  _380
REMARK  162  A    between atoms: _380  and  _381
REMARK  163  A    between atoms: _380  and  _383
REMARK  164  A    between atoms: _383  and  _384
REMARK  165  A    between atoms: _384  and  _385
REMARK  166  A    between atoms: _390  and  _392
REMARK  167  A    between atoms: _392  and  _393
REMARK  168  A    between atoms: _395  and  _397
REMARK  169  A    between atoms: _397  and  _398
REMARK  170  A    between atoms: _397  and  _400
REMARK  171  A    between atoms: _400  and  _401
REMARK  172  A    between atoms: _404  and  _406
REMARK  173  A    between atoms: _406  and  _407
REMARK  174  A    between atoms: _406  and  _409
REMARK  175  A    between atoms: _409  and  _410
REMARK  176  A    between atoms: _412  and  _414
REMARK  177  A    between atoms: _414  and  _415
REMARK  178  A    between atoms: _417  and  _419
REMARK  179  A    between atoms: _419  and  _420
REMARK  180  A    between atoms: _422  and  _424
REMARK  181  A    between atoms: _424  and  _425
REMARK  182  A    between atoms: _424  and  _427
REMARK  183  A    between atoms: _427  and  _428
REMARK  184  A    between atoms: _433  and  _435
REMARK  185  A    between atoms: _435  and  _436
REMARK  186  A    between atoms: _435  and  _438
REMARK  187  A    between atoms: _438  and  _439
REMARK  188  A    between atoms: _442  and  _444
REMARK  189  A    between atoms: _444  and  _445
REMARK  190  A    between atoms: _444  and  _447
REMARK  191  A    between atoms: _450  and  _452
REMARK  192  A    between atoms: _452  and  _453
REMARK  193  A    between atoms: _452  and  _455
REMARK  194  A    between atoms: _455  and  _456
REMARK  195  A    between atoms: _458  and  _460
REMARK  196  A    between atoms: _460  and  _461
REMARK  197  A    between atoms: _460  and  _463
REMARK  198  A    between atoms: _463  and  _464
REMARK  199  A    between atoms: _474  and  _476
REMARK  200  A    between atoms: _476  and  _477
REMARK  201  A    between atoms: _479  and  _481
REMARK  202  A    between atoms: _481  and  _482
REMARK  203  A    between atoms: _481  and  _484
REMARK  204  A    between atoms: _484  and  _485
REMARK  205  A    between atoms: _485  and  _486
REMARK  206  A    between atoms: _489  and  _491
REMARK  207  A    between atoms: _491  and  _492
REMARK  208  A    between atoms: _494  and  _496
REMARK  209  A    between atoms: _496  and  _497
REMARK  210  A    between atoms: _496  and  _499
REMARK  211  A    between atoms: _499  and  _500
REMARK  212  A    between atoms: _501  and  _503
REMARK  213  A    between atoms: _503  and  _504
REMARK  214  A    between atoms: _507  and  _509
REMARK  215  A    between atoms: _509  and  _510
REMARK  216  A    between atoms: _509  and  _512
REMARK  217  A    between atoms: _512  and  _513
REMARK  218  A    between atoms: _513  and  _514
REMARK  219  A    between atoms: _514  and  _515
REMARK  220  A    between atoms: _524  and  _526
REMARK  221  A    between atoms: _526  and  _527
REMARK  222  A    between atoms: _526  and  _529
REMARK  223  A    between atoms: _529  and  _530
REMARK  224  A    between atoms: _530  and  _531
REMARK  225  A    between atoms: _531  and  _532
REMARK  226  A    between atoms: _532  and  _533
REMARK  227  A    between atoms: _537  and  _539
REMARK  228  A    between atoms: _539  and  _540
REMARK  229  A    between atoms: _539  and  _542
REMARK  230  A    between atoms: _542  and  _543
REMARK  231  A    between atoms: _548  and  _549
REMARK  232  A    between atoms: _551  and  _553
REMARK  233  A    between atoms: _553  and  _554
REMARK  234  A    between atoms: _556  and  _558
REMARK  235  A    between atoms: _558  and  _559
REMARK  236  A    between atoms: _558  and  _561
REMARK  237  A    between atoms: _561  and  _562
REMARK  238  A    between atoms: _565  and  _567
REMARK  239  A    between atoms: _567  and  _568
REMARK  240  A    between atoms: _567  and  _570
REMARK  241  A    between atoms: _570  and  _571
REMARK  242  A    between atoms: _576  and  _577
REMARK                            x       y       z     vdW  Elec       q    Type
REMARK                         _______ _______ _______ _____ _____    ______ ____
ROOT
ATOM      1  C   ILE A   1       9.769  22.267  45.462  0.00  0.00    +0.202 C 
ATOM      2  N   VAL A   2       9.646  23.535  45.078  0.00  0.00    -0.301 N 
ATOM      3  H   VAL A   2      10.206  24.262  45.567  0.00  0.00    +0.150 HD
ATOM      4  O   ILE A   1       9.106  21.345  44.982  0.00  0.00    -0.277 OA
ENDROOT
BRANCH   1   5
ATOM      5  CA  ILE A   1      10.781  22.003  46.569  0.00  0.00    +0.013 C 
BRANCH   5   6
ATOM      6  N   ILE A   1      10.159  21.223  47.670  0.00  0.00    +0.387 N 
ATOM      7  H1  ILE A   1      10.865  21.053  48.415  0.00  0.00    -0.089 HD
ATOM      8  H2  ILE A   1       9.359  21.759  48.064  0.00  0.00    -0.089 HD
ATOM      9  H3  ILE A   1       9.819  20.313  47.299  0.00  0.00    -0.089 HD
ENDBRANCH   5   6
BRANCH   5  10
ATOM     10  CB  ILE A   1      11.992  21.243  45.946  0.00  0.00    -0.011 C 
ATOM     11  CG2 ILE A   1      12.591  22.041  44.785  0.00  0.00    -0.002 C 
BRANCH  10  12
ATOM     12  CG1 ILE A   1      13.061  21.006  47.011  0.00  0.00    -0.002 C 
ATOM     13  CD1 ILE A   1      13.691  22.284  47.540  0.00  0.00    -0.000 C 
ENDBRANCH  10  12
ENDBRANCH   5  10
ENDBRANCH   1   5
BRANCH   2  14
ATOM     14  CA  VAL A   2       8.758  23.943  43.999  0.00  0.00    +0.137 C 
BRANCH  14  15
ATOM     15  CB  VAL A   2       8.096  25.298  44.316  0.00  0.00    +0.026 C 
ATOM     16  CG2 VAL A   2       7.404  25.227  45.662  0.00  0.00    +0.002 C 
ATOM     17  CG1 VAL A   2       7.112  25.669  43.216  0.00  0.00    +0.002 C 
ENDBRANCH  14  15
BRANCH  14  18
ATOM     18  C   VAL A   2       9.659  24.074  42.767  0.00  0.00    +0.227 C 
ATOM     19  O   VAL A   2      10.715  24.700  42.821  0.00  0.00    -0.286 OA
ENDBRANCH  14  18
ENDBRANCH   2  14
TORSDOF 7
REMARK  Name = ../refined-set-2016/1z6e/1z6e_pocket.pdb
REMARK  242 active torsions:
REMARK  status: ('A' for Active; 'I' for Inactive)
REMARK    1  A    between atoms: _1  and  _5
REMARK    2  A    between atoms: _5  and  _6
REMARK    3  A    between atoms: _5  and  _8
REMARK    4  A    between atoms: _8  and  _9
REMARK    5  A    between atoms: _12  and  _14
REMARK    6  A    between atoms: _14  and  _15
REMARK    7  A    between atoms: _14  and  _17
REMARK    8  A    between atoms: _20  and  _22
REMARK    9  A    between atoms: _22  and  _23
REMARK   10  A    between atoms: _22  and  _25
REMARK   11  A    between atoms: _25  and  _26
REMARK   12  A    between atoms: _31  and  _33
REMARK   13  A    between atoms: _33  and  _34
REMARK   14  A    between atoms: _33  and  _36
REMARK   15  A    between atoms: _38  and  _40
REMARK   16  A    between atoms: _40  and  _41
REMARK   17  A    between atoms: _40  and  _43
REMARK   18  A    between atoms: _43  and  _44
REMARK   19  A    between atoms: _44  and  _45
REMARK   20  A    between atoms: _50  and  _52
REMARK   21  A    between atoms: _52  and  _53
REMARK   22  A    between atoms: _52  and  _55
REMARK   23  A    between atoms: _55  and  _56
REMARK   24  A    between atoms: _62  and  _64
REMARK   25  A    between atoms: _64  and  _65
REMARK   26  A    between atoms: _64  and  _67
REMARK   27  A    between atoms: _67  and  _68
REMARK   28  A    between atoms: _71  and  _73
REMARK   29  A    between atoms: _73  and  _74
REMARK   30  A    between atoms: _73  and  _76
REMARK   31  A    between atoms: _76  and  _77
REMARK   32  A    between atoms: _77  and  _78
REMARK   33  A    between atoms: _78  and  _79
REMARK   34  A    between atoms: _79  and  _80
REMARK   35  A    between atoms: _84  and  _86
REMARK   36  A    between atoms: _86  and  _87
REMARK   37  A    between atoms: _86  and  _89
REMARK   38  A    between atoms: _89  and  _90
REMARK   39  A    between atoms: _90  and  _91
REMARK   40  A    between atoms: _94  and  _96
REMARK   41  A    between atoms: _96  and  _97
REMARK   42  A    between atoms: _96  and  _99
REMARK   43  A    between atoms: _99  and  _100
REMARK   44  A    between atoms: _103  and  _105
REMARK   45  A    between atoms: _105  and  _106
REMARK   46  A    between atoms: _105  and  _108
REMARK   47  A    between atoms: _108  and  _109
REMARK   48  A    between atoms: _114  and  _115
REMARK   49  A    between atoms: _117  and  _119
REMARK   50  A    between atoms: _119  and  _120
REMARK   51  A    between atoms: _119  and  _122
REMARK   52  A    between atoms: _122  and  _123
REMARK   53  A    between atoms: _126  and  _128
REMARK   54  A    between atoms: _128  and  _129
REMARK   55  A    between atoms: _128  and  _131
REMARK   56  A    between atoms: _131  and  _132
REMARK   57  A    between atoms: _135  and  _137
REMARK   58  A    between atoms: _137  and  _138
REMARK   59  A    between atoms: _137  and  _140
REMARK   60  A    between atoms: _143  and  _145
REMARK   61  A    between atoms: _145  and  _146
REMARK   62  A    between atoms: _148  and  _150
REMARK   63  A    between atoms: _150  and  _151
REMARK   64  A    between atoms: _150  and  _153
REMARK   65  A    between atoms: _153  and  _154
REMARK   66  A    between atoms: _154  and  _155
REMARK   67  A    between atoms: _155  and  _156
REMARK   68  A    between atoms: _165  and  _167
REMARK   69  A    between atoms: _167  and  _168
REMARK   70  A    between atoms: _167  and  _170
REMARK   71  A    between atoms: _170  and  _171
REMARK   72  A    between atoms: _176  and  _178
REMARK   73  A    between atoms: _178  and  _179
REMARK   74  A    between atoms: _178  and  _181
REMARK   75  A    between atoms: _181  and  _182
REMARK   76  A    between atoms: _182  and  _183
REMARK   77  A    between atoms: _186  and  _188
REMARK   78  A    between atoms: _188  and  _189
REMARK   79  A    between atoms: _188  and  _191
REMARK   80  A    between atoms: _191  and  _192
REMARK   81  A    between atoms: _192  and  _193
REMARK   82  A    between atoms: _193  and  _194
REMARK   83  A    between atoms: _194  and  _195
REMARK   84  A    between atoms: _199  and  _201
REMARK   85  A    between atoms: _201  and  _202
REMARK   86  A    between atoms: _204  and  _206
REMARK   87  A    between atoms: _206  and  _207
REMARK   88  A    between atoms: _206  and  _209
REMARK   89  A    between atoms: _209  and  _210
REMARK   90  A    between atoms: _210  and  _211
REMARK   91  A    between atoms: _211  and  _212
REMARK   92  A    between atoms: _221  and  _223
REMARK   93  A    between atoms: _223  and  _224
REMARK   94  A    between atoms: _223  and  _226
REMARK   95  A    between atoms: _226  and  _227
REMARK   96  A    between atoms: _227  and  _228
REMARK   97  A    between atoms: _233  and  _235
REMARK   98  A    between atoms: _235  and  _236
REMARK   99  A    between atoms: _235  and  _238
REMARK  100  A    between atoms: _238  and  _239
REMARK  101  A    between atoms: _242  and  _244
REMARK  102  A    between atoms: _244  and  _245
REMARK  103  A    between atoms: _244  and  _247
REMARK  104  A    between atoms: _250  and  _252
REMARK  105  A    between atoms: _252  and  _253
REMARK  106  A    between atoms: _252  and  _255
REMARK  107  A    between atoms: _255  and  _256
REMARK  108  A    between atoms: _258  and  _260
REMARK  109  A    between atoms: _260  and  _261
REMARK  110  A    between atoms: _260  and  _263
REMARK  111  A    between atoms: _263  and  _264
REMARK  112  A    between atoms: _266  and  _268
REMARK  113  A    between atoms: _268  and  _269
REMARK  114  A    between atoms: _268  and  _271
REMARK  115  A    between atoms: _271  and  _272
REMARK  116  A    between atoms: _278  and  _280
REMARK  117  A    between atoms: _280  and  _281
REMARK  118  A    between atoms: _280  and  _283
REMARK  119  A    between atoms: _283  and  _284
REMARK  120  A    between atoms: _287  and  _289
REMARK  121  A    between atoms: _289  and  _290
REMARK  122  A    between atoms: _289  and  _292
REMARK  123  A    between atoms: _292  and  _293
REMARK  124  A    between atoms: _296  and  _298
REMARK  125  A    between atoms: _298  and  _299
REMARK  126  A    between atoms: _298  and  _301
REMARK  127  A    between atoms: _301  and  _302
REMARK  128  A    between atoms: _305  and  _307
REMARK  129  A    between atoms: _307  and  _308
REMARK  130  A    between atoms: _307  and  _310
REMARK  131  A    between atoms: _310  and  _311
REMARK  132  A    between atoms: _311  and  _312
REMARK  133  A    between atoms: _314  and  _316
REMARK  134  A    between atoms: _316  and  _317
REMARK  135  A    between atoms: _316  and  _319
REMARK  136  A    between atoms: _321  and  _323
REMARK  137  A    between atoms: _323  and  _324
REMARK  138  A    between atoms: _327  and  _329
REMARK  139  A    between atoms: _329  and  _330
REMARK  140  A    between atoms: _332  and  _334
REMARK  141  A    between atoms: _334  and  _335
REMARK  142  A    between atoms: _334  and  _337
REMARK  143  A    between atoms: _337  and  _338
REMARK  144  A    between atoms: _343  and  _344
REMARK  145  A    between atoms: _346  and  _348
REMARK  146  A    between atoms: _348  and  _349
REMARK  147  A    between atoms: _348  and  _351
REMARK  148  A    between atoms: _351  and  _352
REMARK  149  A    between atoms: _352  and  _353
REMARK  150  A    between atoms: _356  and  _358
REMARK  151  A    between atoms: _358  and  _359
REMARK  152  A    between atoms: _358  and  _361
REMARK  153  A    between atoms: _361  and  _362
REMARK  154  A    between atoms: _365  and  _367
REMARK  155  A    between atoms: _367  and  _368
REMARK  156  A    between atoms: _371  and  _373
REMARK  157  A    between atoms: _373  and  _374
REMARK  158  A    between atoms: _373  and  _376
REMARK  159  A    between atoms: _376  and  _377
REMARK  160  A    between atoms: _377  and  _500
REMARK  161  A    between atoms: _378  and  _380
REMARK  162  A    between atoms: _380  and  _381
REMARK  163  A    between atoms: _380  and  _383
REMARK  164  A    between atoms: _383  and  _384
REMARK  165  A    between atoms: _384  and  _385
REMARK  166  A    between atoms: _390  and  _392
REMARK  167  A    between atoms: _392  and  _393
REMARK  168  A    between atoms: _395  and  _397
REMARK  169  A    between atoms: _397  and  _398
REMARK  170  A    between atoms: _397  and  _400
REMARK  171  A    between atoms: _400  and  _401
REMARK  172  A    between atoms: _404  and  _406
REMARK  173  A    between atoms: _406  and  _407
REMARK  174  A    between atoms: _406  and  _409
REMARK  175  A    between atoms: _409  and  _410
REMARK  176  A    between atoms: _412  and  _414
REMARK  177  A    between atoms: _414  and  _415
REMARK  178  A    between atoms: _417  and  _419
REMARK  179  A    between atoms: _419  and  _420
REMARK  180  A    between atoms: _422  and  _424
REMARK  181  A    between atoms: _424  and  _425
REMARK  182  A    between atoms: _424  and  _427
REMARK  183  A    between atoms: _427  and  _428
REMARK  184  A    between atoms: _433  and  _435
REMARK  185  A    between atoms: _435  and  _436
REMARK  186  A    between atoms: _435  and  _438
REMARK  187  A    between atoms: _438  and  _439
REMARK  188  A    between atoms: _442  and  _444
REMARK  189  A    between atoms: _444  and  _445
REMARK  190  A    between atoms: _444  and  _447
REMARK  191  A    between atoms: _450  and  _452
REMARK  192  A    between atoms: _452  and  _453
REMARK  193  A    between atoms: _452  and  _455
REMARK  194  A    between atoms: _455  and  _456
REMARK  195  A    between atoms: _458  and  _460
REMARK  196  A    between atoms: _460  and  _461
REMARK  197  A    between atoms: _460  and  _463
REMARK  198  A    between atoms: _463  and  _464
REMARK  199  A    between atoms: _474  and  _476
REMARK  200  A    between atoms: _476  and  _477
REMARK  201  A    between atoms: _479  and  _481
REMARK  202  A    between atoms: _481  and  _482
REMARK  203  A    between atoms: _481  and  _484
REMARK  204  A    between atoms: _484  and  _485
REMARK  205  A    between atoms: _485  and  _486
REMARK  206  A    between atoms: _489  and  _491
REMARK  207  A    between atoms: _491  and  _492
REMARK  208  A    between atoms: _494  and  _496
REMARK  209  A    between atoms: _496  and  _497
REMARK  210  A    between atoms: _496  and  _499
REMARK  211  A    between atoms: _499  and  _500
REMARK  212  A    between atoms: _501  and  _503
REMARK  213  A    between atoms: _503  and  _504
REMARK  214  A    between atoms: _507  and  _509
REMARK  215  A    between atoms: _509  and  _510
REMARK  216  A    between atoms: _509  and  _512
REMARK  217  A    between atoms: _512  and  _513
REMARK  218  A    between atoms: _513  and  _514
REMARK  219  A    between atoms: _514  and  _515
REMARK  220  A    between atoms: _524  and  _526
REMARK  221  A    between atoms: _526  and  _527
REMARK  222  A    between atoms: _526  and  _529
REMARK  223  A    between atoms: _529  and  _530
REMARK  224  A    between atoms: _530  and  _531
REMARK  225  A    between atoms: _531  and  _532
REMARK  226  A    between atoms: _532  and  _533
REMARK  227  A    between atoms: _537  and  _539
REMARK  228  A    between atoms: _539  and  _540
REMARK  229  A    between atoms: _539  and  _542
REMARK  230  A    between atoms: _542  and  _543
REMARK  231  A    between atoms: _548  and  _549
REMARK  232  A    between atoms: _551  and  _553
REMARK  233  A    between atoms: _553  and  _554
REMARK  234  A    between atoms: _556  and  _558
REMARK  235  A    between atoms: _558  and  _559
REMARK  236  A    between atoms: _558  and  _561
REMARK  237  A    between atoms: _561  and  _562
REMARK  238  A    between atoms: _565  and  _567
REMARK  239  A    between atoms: _567  and  _568
REMARK  240  A    between atoms: _567  and  _570
REMARK  241  A    between atoms: _570  and  _571
REMARK  242  A    between atoms: _576  and  _577
REMARK                            x       y       z     vdW  Elec       q    Type
REMARK                         _______ _______ _______ _____ _____    ______ ____
ROOT
ATOM      1  CA  HIS A   1      12.578  25.272  64.459  0.00  0.00    +0.151 C 
ENDROOT
BRANCH   1   2
ATOM      2  C   HIS A   1      11.950  23.923  64.144  0.00  0.00    +0.239 C 
ATOM      3  O   HIS A   1      10.779  23.697  64.422  0.00  0.00    -0.274 OA
ATOM      4  N   CYS A   2      12.727  23.016  63.569  0.00  0.00    -0.297 N 
ATOM      5  H   CYS A   2      13.717  23.250  63.351  0.00  0.00    +0.150 HD
BRANCH   4   6
ATOM      6  CA  CYS A   2      12.208  21.692  63.238  0.00  0.00    +0.149 C 
BRANCH   6   7
ATOM      7  C   CYS A   2      12.051  20.811  64.468  0.00  0.00    +0.228 C 
ATOM      8  O   CYS A   2      11.266  19.864  64.465  0.00  0.00    -0.286 OA
ENDBRANCH   6   7
BRANCH   6   9
ATOM      9  CB  CYS A   2      13.128  20.990  62.232  0.00  0.00    +0.096 C 
ATOM     10  SG  CYS A   2      13.245  21.821  60.642  0.00  0.00    -0.080 S 
ENDBRANCH   6   9
ENDBRANCH   4   6
ENDBRANCH   1   2
BRANCH   1  11
ATOM     11  N   HIS A   1      14.031  25.252  64.410  0.00  0.00    -0.238 NA
ATOM     12  H   HIS A   1      14.530  25.752  63.647  0.00  0.00    +0.142 HD
ENDBRANCH   1  11
BRANCH   1  13
ATOM     13  CB  HIS A   1      12.001  26.361  63.527  0.00  0.00    +0.074 C 
BRANCH  13  14
ATOM     14  CG  HIS A   1      11.804  25.931  62.103  0.00  0.00    +0.082 A 
ATOM     15  CD2 HIS A   1      10.815  25.216  61.514  0.00  0.00    +0.115 A 
ATOM     16  NE2 HIS A   1      11.084  25.182  60.167  0.00  0.00    -0.221 NA
ATOM     17  CE1 HIS A   1      12.200  25.849  59.936  0.00  0.00    +0.199 A 
ATOM     18  ND1 HIS A   1      12.657  26.308  61.088  0.00  0.00    -0.227 NA
ENDBRANCH  13  14
ENDBRANCH   1  13
TORSDOF 7
REMARK  Name = ../refined-set-2016/1z6e/1z6e_pocket.pdb
REMARK  242 active torsions:
REMARK  status: ('A' for Active; 'I' for Inactive)
REMARK    1  A    between atoms: _1  and  _5
REMARK    2  A    between atoms: _5  and  _6
REMARK    3  A    between atoms: _5  and  _8
REMARK    4  A    between atoms: _8  and  _9
REMARK    5  A    between atoms: _12  and  _14
REMARK    6  A    between atoms: _14  and  _15
REMARK    7  A    between atoms: _14  and  _17
REMARK    8  A    between atoms: _20  and  _22
REMARK    9  A    between atoms: _22  and  _23
REMARK   10  A    between atoms: _22  and  _25
REMARK   11  A    between atoms: _25  and  _26
REMARK   12  A    between atoms: _31  and  _33
REMARK   13  A    between atoms: _33  and  _34
REMARK   14  A    between atoms: _33  and  _36
REMARK   15  A    between atoms: _38  and  _40
REMARK   16  A    between atoms: _40  and  _41
REMARK   17  A    between atoms: _40  and  _43
REMARK   18  A    between atoms: _43  and  _44
REMARK   19  A    between atoms: _44  and  _45
REMARK   20  A    between atoms: _50  and  _52
REMARK   21  A    between atoms: _52  and  _53
REMARK   22  A    between atoms: _52  and  _55
REMARK   23  A    between atoms: _55  and  _56
REMARK   24  A    between atoms: _62  and  _64
REMARK   25  A    between atoms: _64  and  _65
REMARK   26  A    between atoms: _64  and  _67
REMARK   27  A    between atoms: _67  and  _68
REMARK   28  A    between atoms: _71  and  _73
REMARK   29  A    between atoms: _73  and  _74
REMARK   30  A    between atoms: _73  and  _76
REMARK   31  A    between atoms: _76  and  _77
REMARK   32  A    between atoms: _77  and  _78
REMARK   33  A    between atoms: _78  and  _79
REMARK   34  A    between atoms: _79  and  _80
REMARK   35  A    between atoms: _84  and  _86
REMARK   36  A    between atoms: _86  and  _87
REMARK   37  A    between atoms: _86  and  _89
REMARK   38  A    between atoms: _89  and  _90
REMARK   39  A    between atoms: _90  and  _91
REMARK   40  A    between atoms: _94  and  _96
REMARK   41  A    between atoms: _96  and  _97
REMARK   42  A    between atoms: _96  and  _99
REMARK   43  A    between atoms: _99  and  _100
REMARK   44  A    between atoms: _103  and  _105
REMARK   45  A    between atoms: _105  and  _106
REMARK   46  A    between atoms: _105  and  _108
REMARK   47  A    between atoms: _108  and  _109
REMARK   48  A    between atoms: _114  and  _115
REMARK   49  A    between atoms: _117  and  _119
REMARK   50  A    between atoms: _119  and  _120
REMARK   51  A    between atoms: _119  and  _122
REMARK   52  A    between atoms: _122  and  _123
REMARK   53  A    between atoms: _126  and  _128
REMARK   54  A    between atoms: _128  and  _129
REMARK   55  A    between atoms: _128  and  _131
REMARK   56  A    between atoms: _131  and  _132
REMARK   57  A    between atoms: _135  and  _137
REMARK   58  A    between atoms: _137  and  _138
REMARK   59  A    between atoms: _137  and  _140
REMARK   60  A    between atoms: _143  and  _145
REMARK   61  A    between atoms: _145  and  _146
REMARK   62  A    between atoms: _148  and  _150
REMARK   63  A    between atoms: _150  and  _151
REMARK   64  A    between atoms: _150  and  _153
REMARK   65  A    between atoms: _153  and  _154
REMARK   66  A    between atoms: _154  and  _155
REMARK   67  A    between atoms: _155  and  _156
REMARK   68  A    between atoms: _165  and  _167
REMARK   69  A    between atoms: _167  and  _168
REMARK   70  A    between atoms: _167  and  _170
REMARK   71  A    between atoms: _170  and  _171
REMARK   72  A    between atoms: _176  and  _178
REMARK   73  A    between atoms: _178  and  _179
REMARK   74  A    between atoms: _178  and  _181
REMARK   75  A    between atoms: _181  and  _182
REMARK   76  A    between atoms: _182  and  _183
REMARK   77  A    between atoms: _186  and  _188
REMARK   78  A    between atoms: _188  and  _189
REMARK   79  A    between atoms: _188  and  _191
REMARK   80  A    between atoms: _191  and  _192
REMARK   81  A    between atoms: _192  and  _193
REMARK   82  A    between atoms: _193  and  _194
REMARK   83  A    between atoms: _194  and  _195
REMARK   84  A    between atoms: _199  and  _201
REMARK   85  A    between atoms: _201  and  _202
REMARK   86  A    between atoms: _204  and  _206
REMARK   87  A    between atoms: _206  and  _207
REMARK   88  A    between atoms: _206  and  _209
REMARK   89  A    between atoms: _209  and  _210
REMARK   90  A    between atoms: _210  and  _211
REMARK   91  A    between atoms: _211  and  _212
REMARK   92  A    between atoms: _221  and  _223
REMARK   93  A    between atoms: _223  and  _224
REMARK   94  A    between atoms: _223  and  _226
REMARK   95  A    between atoms: _226  and  _227
REMARK   96  A    between atoms: _227  and  _228
REMARK   97  A    between atoms: _233  and  _235
REMARK   98  A    between atoms: _235  and  _236
REMARK   99  A    between atoms: _235  and  _238
REMARK  100  A    between atoms: _238  and  _239
REMARK  101  A    between atoms: _242  and  _244
REMARK  102  A    between atoms: _244  and  _245
REMARK  103  A    between atoms: _244  and  _247
REMARK  104  A    between atoms: _250  and  _252
REMARK  105  A    between atoms: _252  and  _253
REMARK  106  A    between atoms: _252  and  _255
REMARK  107  A    between atoms: _255  and  _256
REMARK  108  A    between atoms: _258  and  _260
REMARK  109  A    between atoms: _260  and  _261
REMARK  110  A    between atoms: _260  and  _263
REMARK  111  A    between atoms: _263  and  _264
REMARK  112  A    between atoms: _266  and  _268
REMARK  113  A    between atoms: _268  and  _269
REMARK  114  A    between atoms: _268  and  _271
REMARK  115  A    between atoms: _271  and  _272
REMARK  116  A    between atoms: _278  and  _280
REMARK  117  A    between atoms: _280  and  _281
REMARK  118  A    between atoms: _280  and  _283
REMARK  119  A    between atoms: _283  and  _284
REMARK  120  A    between atoms: _287  and  _289
REMARK  121  A    between atoms: _289  and  _290
REMARK  122  A    between atoms: _289  and  _292
REMARK  123  A    between atoms: _292  and  _293
REMARK  124  A    between atoms: _296  and  _298
REMARK  125  A    between atoms: _298  and  _299
REMARK  126  A    between atoms: _298  and  _301
REMARK  127  A    between atoms: _301  and  _302
REMARK  128  A    between atoms: _305  and  _307
REMARK  129  A    between atoms: _307  and  _308
REMARK  130  A    between atoms: _307  and  _310
REMARK  131  A    between atoms: _310  and  _311
REMARK  132  A    between atoms: _311  and  _312
REMARK  133  A    between atoms: _314  and  _316
REMARK  134  A    between atoms: _316  and  _317
REMARK  135  A    between atoms: _316  and  _319
REMARK  136  A    between atoms: _321  and  _323
REMARK  137  A    between atoms: _323  and  _324
REMARK  138  A    between atoms: _327  and  _329
REMARK  139  A    between atoms: _329  and  _330
REMARK  140  A    between atoms: _332  and  _334
REMARK  141  A    between atoms: _334  and  _335
REMARK  142  A    between atoms: _334  and  _337
REMARK  143  A    between atoms: _337  and  _338
REMARK  144  A    between atoms: _343  and  _344
REMARK  145  A    between atoms: _346  and  _348
REMARK  146  A    between atoms: _348  and  _349
REMARK  147  A    between atoms: _348  and  _351
REMARK  148  A    between atoms: _351  and  _352
REMARK  149  A    between atoms: _352  and  _353
REMARK  150  A    between atoms: _356  and  _358
REMARK  151  A    between atoms: _358  and  _359
REMARK  152  A    between atoms: _358  and  _361
REMARK  153  A    between atoms: _361  and  _362
REMARK  154  A    between atoms: _365  and  _367
REMARK  155  A    between atoms: _367  and  _368
REMARK  156  A    between atoms: _371  and  _373
REMARK  157  A    between atoms: _373  and  _374
REMARK  158  A    between atoms: _373  and  _376
REMARK  159  A    between atoms: _376  and  _377
REMARK  160  A    between atoms: _377  and  _500
REMARK  161  A    between atoms: _378  and  _380
REMARK  162  A    between atoms: _380  and  _381
REMARK  163  A    between atoms: _380  and  _383
REMARK  164  A    between atoms: _383  and  _384
REMARK  165  A    between atoms: _384  and  _385
REMARK  166  A    between atoms: _390  and  _392
REMARK  167  A    between atoms: _392  and  _393
REMARK  168  A    between atoms: _395  and  _397
REMARK  169  A    between atoms: _397  and  _398
REMARK  170  A    between atoms: _397  and  _400
REMARK  171  A    between atoms: _400  and  _401
REMARK  172  A    between atoms: _404  and  _406
REMARK  173  A    between atoms: _406  and  _407
REMARK  174  A    between atoms: _406  and  _409
REMARK  175  A    between atoms: _409  and  _410
REMARK  176  A    between atoms: _412  and  _414
REMARK  177  A    between atoms: _414  and  _415
REMARK  178  A    between atoms: _417  and  _419
REMARK  179  A    between atoms: _419  and  _420
REMARK  180  A    between atoms: _422  and  _424
REMARK  181  A    between atoms: _424  and  _425
REMARK  182  A    between atoms: _424  and  _427
REMARK  183  A    between atoms: _427  and  _428
REMARK  184  A    between atoms: _433  and  _435
REMARK  185  A    between atoms: _435  and  _436
REMARK  186  A    between atoms: _435  and  _438
REMARK  187  A    between atoms: _438  and  _439
REMARK  188  A    between atoms: _442  and  _444
REMARK  189  A    between atoms: _444  and  _445
REMARK  190  A    between atoms: _444  and  _447
REMARK  191  A    between atoms: _450  and  _452
REMARK  192  A    between atoms: _452  and  _453
REMARK  193  A    between atoms: _452  and  _455
REMARK  194  A    between atoms: _455  and  _456
REMARK  195  A    between atoms: _458  and  _460
REMARK  196  A    between atoms: _460  and  _461
REMARK  197  A    between atoms: _460  and  _463
REMARK  198  A    between atoms: _463  and  _464
REMARK  199  A    between atoms: _474  and  _476
REMARK  200  A    between atoms: _476  and  _477
REMARK  201  A    between atoms: _479  and  _481
REMARK  202  A    between atoms: _481  and  _482
REMARK  203  A    between atoms: _481  and  _484
REMARK  204  A    between atoms: _484  and  _485
REMARK  205  A    between atoms: _485  and  _486
REMARK  206  A    between atoms: _489  and  _491
REMARK  207  A    between atoms: _491  and  _492
REMARK  208  A    between atoms: _494  and  _496
REMARK  209  A    between atoms: _496  and  _497
REMARK  210  A    between atoms: _496  and  _499
REMARK  211  A    between atoms: _499  and  _500
REMARK  212  A    between atoms: _501  and  _503
REMARK  213  A    between atoms: _503  and  _504
REMARK  214  A    between atoms: _507  and  _509
REMARK  215  A    between atoms: _509  and  _510
REMARK  216  A    between atoms: _509  and  _512
REMARK  217  A    between atoms: _512  and  _513
REMARK  218  A    between atoms: _513  and  _514
REMARK  219  A    between atoms: _514  and  _515
REMARK  220  A    between atoms: _524  and  _526
REMARK  221  A    between atoms: _526  and  _527
REMARK  222  A    between atoms: _526  and  _529
REMARK  223  A    between atoms: _529  and  _530
REMARK  224  A    between atoms: _530  and  _531
REMARK  225  A    between atoms: _531  and  _532
REMARK  226  A    between atoms: _532  and  _533
REMARK  227  A    between atoms: _537  and  _539
REMARK  228  A    between atoms: _539  and  _540
REMARK  229  A    between atoms: _539  and  _542
REMARK  230  A    between atoms: _542  and  _543
REMARK  231  A    between atoms: _548  and  _549
REMARK  232  A    between atoms: _551  and  _553
REMARK  233  A    between atoms: _553  and  _554
REMARK  234  A    between atoms: _556  and  _558
REMARK  235  A    between atoms: _558  and  _559
REMARK  236  A    between atoms: _558  and  _561
REMARK  237  A    between atoms: _561  and  _562
REMARK  238  A    between atoms: _565  and  _567
REMARK  239  A    between atoms: _567  and  _568
REMARK  240  A    between atoms: _567  and  _570
REMARK  241  A    between atoms: _570  and  _571
REMARK  242  A    between atoms: _576  and  _577
REMARK                            x       y       z     vdW  Elec       q    Type
REMARK                         _______ _______ _______ _____ _____    ______ ____
ROOT
ATOM      1  CB  GLN A   1       8.175  19.616  63.424  0.00  0.00    +0.035 C 
ENDROOT
BRANCH   1   2
ATOM      2  CA  GLN A   1       7.681  19.525  64.876  0.00  0.00    +0.134 C 
BRANCH   2   3
ATOM      3  N   GLN A   1       8.613  20.224  65.763  0.00  0.00    -0.239 NA
ATOM      4  H   GLN A   1       9.634  20.073  65.636  0.00  0.00    +0.142 HD
ENDBRANCH   2   3
BRANCH   2   5
ATOM      5  C   GLN A   1       7.425  18.051  65.212  0.00  0.00    +0.224 C 
ATOM      6  O   GLN A   1       6.714  17.361  64.477  0.00  0.00    -0.287 OA
ENDBRANCH   2   5
ENDBRANCH   1   2
BRANCH   1   7
ATOM      7  CG  GLN A   1       8.626  21.004  62.960  0.00  0.00    +0.087 C 
BRANCH   7   8
ATOM      8  CD  GLN A   1       7.524  22.050  63.021  0.00  0.00    +0.219 C 
ATOM      9  NE2 GLN A   1       7.834  23.210  63.601  0.00  0.00    -0.329 N 
ATOM     10 HE21 GLN A   1       8.786  23.357  63.993  0.00  0.00    +0.145 HD
ATOM     11 HE22 GLN A   1       7.124  23.967  63.661  0.00  0.00    +0.145 HD
ATOM     12  OE1 GLN A   1       6.411  21.823  62.540  0.00  0.00    -0.275 OA
ENDBRANCH   7   8
ENDBRANCH   1   7
TORSDOF 5
REMARK  Name = ../refined-set-2016/1z6e/1z6e_pocket.pdb
REMARK  242 active torsions:
REMARK  status: ('A' for Active; 'I' for Inactive)
REMARK    1  A    between atoms: _1  and  _5
REMARK    2  A    between atoms: _5  and  _6
REMARK    3  A    between atoms: _5  and  _8
REMARK    4  A    between atoms: _8  and  _9
REMARK    5  A    between atoms: _12  and  _14
REMARK    6  A    between atoms: _14  and  _15
REMARK    7  A    between atoms: _14  and  _17
REMARK    8  A    between atoms: _20  and  _22
REMARK    9  A    between atoms: _22  and  _23
REMARK   10  A    between atoms: _22  and  _25
REMARK   11  A    between atoms: _25  and  _26
REMARK   12  A    between atoms: _31  and  _33
REMARK   13  A    between atoms: _33  and  _34
REMARK   14  A    between atoms: _33  and  _36
REMARK   15  A    between atoms: _38  and  _40
REMARK   16  A    between atoms: _40  and  _41
REMARK   17  A    between atoms: _40  and  _43
REMARK   18  A    between atoms: _43  and  _44
REMARK   19  A    between atoms: _44  and  _45
REMARK   20  A    between atoms: _50  and  _52
REMARK   21  A    between atoms: _52  and  _53
REMARK   22  A    between atoms: _52  and  _55
REMARK   23  A    between atoms: _55  and  _56
REMARK   24  A    between atoms: _62  and  _64
REMARK   25  A    between atoms: _64  and  _65
REMARK   26  A    between atoms: _64  and  _67
REMARK   27  A    between atoms: _67  and  _68
REMARK   28  A    between atoms: _71  and  _73
REMARK   29  A    between atoms: _73  and  _74
REMARK   30  A    between atoms: _73  and  _76
REMARK   31  A    between atoms: _76  and  _77
REMARK   32  A    between atoms: _77  and  _78
REMARK   33  A    between atoms: _78  and  _79
REMARK   34  A    between atoms: _79  and  _80
REMARK   35  A    between atoms: _84  and  _86
REMARK   36  A    between atoms: _86  and  _87
REMARK   37  A    between atoms: _86  and  _89
REMARK   38  A    between atoms: _89  and  _90
REMARK   39  A    between atoms: _90  and  _91
REMARK   40  A    between atoms: _94  and  _96
REMARK   41  A    between atoms: _96  and  _97
REMARK   42  A    between atoms: _96  and  _99
REMARK   43  A    between atoms: _99  and  _100
REMARK   44  A    between atoms: _103  and  _105
REMARK   45  A    between atoms: _105  and  _106
REMARK   46  A    between atoms: _105  and  _108
REMARK   47  A    between atoms: _108  and  _109
REMARK   48  A    between atoms: _114  and  _115
REMARK   49  A    between atoms: _117  and  _119
REMARK   50  A    between atoms: _119  and  _120
REMARK   51  A    between atoms: _119  and  _122
REMARK   52  A    between atoms: _122  and  _123
REMARK   53  A    between atoms: _126  and  _128
REMARK   54  A    between atoms: _128  and  _129
REMARK   55  A    between atoms: _128  and  _131
REMARK   56  A    between atoms: _131  and  _132
REMARK   57  A    between atoms: _135  and  _137
REMARK   58  A    between atoms: _137  and  _138
REMARK   59  A    between atoms: _137  and  _140
REMARK   60  A    between atoms: _143  and  _145
REMARK   61  A    between atoms: _145  and  _146
REMARK   62  A    between atoms: _148  and  _150
REMARK   63  A    between atoms: _150  and  _151
REMARK   64  A    between atoms: _150  and  _153
REMARK   65  A    between atoms: _153  and  _154
REMARK   66  A    between atoms: _154  and  _155
REMARK   67  A    between atoms: _155  and  _156
REMARK   68  A    between atoms: _165  and  _167
REMARK   69  A    between atoms: _167  and  _168
REMARK   70  A    between atoms: _167  and  _170
REMARK   71  A    between atoms: _170  and  _171
REMARK   72  A    between atoms: _176  and  _178
REMARK   73  A    between atoms: _178  and  _179
REMARK   74  A    between atoms: _178  and  _181
REMARK   75  A    between atoms: _181  and  _182
REMARK   76  A    between atoms: _182  and  _183
REMARK   77  A    between atoms: _186  and  _188
REMARK   78  A    between atoms: _188  and  _189
REMARK   79  A    between atoms: _188  and  _191
REMARK   80  A    between atoms: _191  and  _192
REMARK   81  A    between atoms: _192  and  _193
REMARK   82  A    between atoms: _193  and  _194
REMARK   83  A    between atoms: _194  and  _195
REMARK   84  A    between atoms: _199  and  _201
REMARK   85  A    between atoms: _201  and  _202
REMARK   86  A    between atoms: _204  and  _206
REMARK   87  A    between atoms: _206  and  _207
REMARK   88  A    between atoms: _206  and  _209
REMARK   89  A    between atoms: _209  and  _210
REMARK   90  A    between atoms: _210  and  _211
REMARK   91  A    between atoms: _211  and  _212
REMARK   92  A    between atoms: _221  and  _223
REMARK   93  A    between atoms: _223  and  _224
REMARK   94  A    between atoms: _223  and  _226
REMARK   95  A    between atoms: _226  and  _227
REMARK   96  A    between atoms: _227  and  _228
REMARK   97  A    between atoms: _233  and  _235
REMARK   98  A    between atoms: _235  and  _236
REMARK   99  A    between atoms: _235  and  _238
REMARK  100  A    between atoms: _238  and  _239
REMARK  101  A    between atoms: _242  and  _244
REMARK  102  A    between atoms: _244  and  _245
REMARK  103  A    between atoms: _244  and  _247
REMARK  104  A    between atoms: _250  and  _252
REMARK  105  A    between atoms: _252  and  _253
REMARK  106  A    between atoms: _252  and  _255
REMARK  107  A    between atoms: _255  and  _256
REMARK  108  A    between atoms: _258  and  _260
REMARK  109  A    between atoms: _260  and  _261
REMARK  110  A    between atoms: _260  and  _263
REMARK  111  A    between atoms: _263  and  _264
REMARK  112  A    between atoms: _266  and  _268
REMARK  113  A    between atoms: _268  and  _269
REMARK  114  A    between atoms: _268  and  _271
REMARK  115  A    between atoms: _271  and  _272
REMARK  116  A    between atoms: _278  and  _280
REMARK  117  A    between atoms: _280  and  _281
REMARK  118  A    between atoms: _280  and  _283
REMARK  119  A    between atoms: _283  and  _284
REMARK  120  A    between atoms: _287  and  _289
REMARK  121  A    between atoms: _289  and  _290
REMARK  122  A    between atoms: _289  and  _292
REMARK  123  A    between atoms: _292  and  _293
REMARK  124  A    between atoms: _296  and  _298
REMARK  125  A    between atoms: _298  and  _299
REMARK  126  A    between atoms: _298  and  _301
REMARK  127  A    between atoms: _301  and  _302
REMARK  128  A    between atoms: _305  and  _307
REMARK  129  A    between atoms: _307  and  _308
REMARK  130  A    between atoms: _307  and  _310
REMARK  131  A    between atoms: _310  and  _311
REMARK  132  A    between atoms: _311  and  _312
REMARK  133  A    between atoms: _314  and  _316
REMARK  134  A    between atoms: _316  and  _317
REMARK  135  A    between atoms: _316  and  _319
REMARK  136  A    between atoms: _321  and  _323
REMARK  137  A    between atoms: _323  and  _324
REMARK  138  A    between atoms: _327  and  _329
REMARK  139  A    between atoms: _329  and  _330
REMARK  140  A    between atoms: _332  and  _334
REMARK  141  A    between atoms: _334  and  _335
REMARK  142  A    between atoms: _334  and  _337
REMARK  143  A    between atoms: _337  and  _338
REMARK  144  A    between atoms: _343  and  _344
REMARK  145  A    between atoms: _346  and  _348
REMARK  146  A    between atoms: _348  and  _349
REMARK  147  A    between atoms: _348  and  _351
REMARK  148  A    between atoms: _351  and  _352
REMARK  149  A    between atoms: _352  and  _353
REMARK  150  A    between atoms: _356  and  _358
REMARK  151  A    between atoms: _358  and  _359
REMARK  152  A    between atoms: _358  and  _361
REMARK  153  A    between atoms: _361  and  _362
REMARK  154  A    between atoms: _365  and  _367
REMARK  155  A    between atoms: _367  and  _368
REMARK  156  A    between atoms: _371  and  _373
REMARK  157  A    between atoms: _373  and  _374
REMARK  158  A    between atoms: _373  and  _376
REMARK  159  A    between atoms: _376  and  _377
REMARK  160  A    between atoms: _377  and  _500
REMARK  161  A    between atoms: _378  and  _380
REMARK  162  A    between atoms: _380  and  _381
REMARK  163  A    between atoms: _380  and  _383
REMARK  164  A    between atoms: _383  and  _384
REMARK  165  A    between atoms: _384  and  _385
REMARK  166  A    between atoms: _390  and  _392
REMARK  167  A    between atoms: _392  and  _393
REMARK  168  A    between atoms: _395  and  _397
REMARK  169  A    between atoms: _397  and  _398
REMARK  170  A    between atoms: _397  and  _400
REMARK  171  A    between atoms: _400  and  _401
REMARK  172  A    between atoms: _404  and  _406
REMARK  173  A    between atoms: _406  and  _407
REMARK  174  A    between atoms: _406  and  _409
REMARK  175  A    between atoms: _409  and  _410
REMARK  176  A    between atoms: _412  and  _414
REMARK  177  A    between atoms: _414  and  _415
REMARK  178  A    between atoms: _417  and  _419
REMARK  179  A    between atoms: _419  and  _420
REMARK  180  A    between atoms: _422  and  _424
REMARK  181  A    between atoms: _424  and  _425
REMARK  182  A    between atoms: _424  and  _427
REMARK  183  A    between atoms: _427  and  _428
REMARK  184  A    between atoms: _433  and  _435
REMARK  185  A    between atoms: _435  and  _436
REMARK  186  A    between atoms: _435  and  _438
REMARK  187  A    between atoms: _438  and  _439
REMARK  188  A    between atoms: _442  and  _444
REMARK  189  A    between atoms: _444  and  _445
REMARK  190  A    between atoms: _444  and  _447
REMARK  191  A    between atoms: _450  and  _452
REMARK  192  A    between atoms: _452  and  _453
REMARK  193  A    between atoms: _452  and  _455
REMARK  194  A    between atoms: _455  and  _456
REMARK  195  A    between atoms: _458  and  _460
REMARK  196  A    between atoms: _460  and  _461
REMARK  197  A    between atoms: _460  and  _463
REMARK  198  A    between atoms: _463  and  _464
REMARK  199  A    between atoms: _474  and  _476
REMARK  200  A    between atoms: _476  and  _477
REMARK  201  A    between atoms: _479  and  _481
REMARK  202  A    between atoms: _481  and  _482
REMARK  203  A    between atoms: _481  and  _484
REMARK  204  A    between atoms: _484  and  _485
REMARK  205  A    between atoms: _485  and  _486
REMARK  206  A    between atoms: _489  and  _491
REMARK  207  A    between atoms: _491  and  _492
REMARK  208  A    between atoms: _494  and  _496
REMARK  209  A    between atoms: _496  and  _497
REMARK  210  A    between atoms: _496  and  _499
REMARK  211  A    between atoms: _499  and  _500
REMARK  212  A    between atoms: _501  and  _503
REMARK  213  A    between atoms: _503  and  _504
REMARK  214  A    between atoms: _507  and  _509
REMARK  215  A    between atoms: _509  and  _510
REMARK  216  A    between atoms: _509  and  _512
REMARK  217  A    between atoms: _512  and  _513
REMARK  218  A    between atoms: _513  and  _514
REMARK  219  A    between atoms: _514  and  _515
REMARK  220  A    between atoms: _524  and  _526
REMARK  221  A    between atoms: _526  and  _527
REMARK  222  A    between atoms: _526  and  _529
REMARK  223  A    between atoms: _529  and  _530
REMARK  224  A    between atoms: _530  and  _531
REMARK  225  A    between atoms: _531  and  _532
REMARK  226  A    between atoms: _532  and  _533
REMARK  227  A    between atoms: _537  and  _539
REMARK  228  A    between atoms: _539  and  _540
REMARK  229  A    between atoms: _539  and  _542
REMARK  230  A    between atoms: _542  and  _543
REMARK  231  A    between atoms: _548  and  _549
REMARK  232  A    between atoms: _551  and  _553
REMARK  233  A    between atoms: _553  and  _554
REMARK  234  A    between atoms: _556  and  _558
REMARK  235  A    between atoms: _558  and  _559
REMARK  236  A    between atoms: _558  and  _561
REMARK  237  A    between atoms: _561  and  _562
REMARK  238  A    between atoms: _565  and  _567
REMARK  239  A    between atoms: _567  and  _568
REMARK  240  A    between atoms: _567  and  _570
REMARK  241  A    between atoms: _570  and  _571
REMARK  242  A    between atoms: _576  and  _577
REMARK                            x       y       z     vdW  Elec       q    Type
REMARK                         _______ _______ _______ _____ _____    ______ ____
ROOT
ATOM      1  CA  GLU A   4       9.229  34.928  67.407  0.00  0.00    +0.149 C 
ENDROOT
BRANCH   1   2
ATOM      2  C   GLU A   4       9.887  35.661  66.247  0.00  0.00    +0.241 C 
ATOM      3  N   THR A   5      11.158  35.359  66.007  0.00  0.00    -0.295 N 
ATOM      4  H   THR A   5      11.631  34.643  66.595  0.00  0.00    +0.150 HD
ATOM      5  O   GLU A   4       9.249  36.467  65.569  0.00  0.00    -0.273 OA
BRANCH   3   6
ATOM      6  CA  THR A   5      11.901  36.008  64.941  0.00  0.00    +0.176 C 
BRANCH   6   7
ATOM      7  C   THR A   5      12.536  35.017  63.970  0.00  0.00    +0.243 C 
ATOM      8  N   TYR A   6      12.611  33.752  64.380  0.00  0.00    -0.297 N 
ATOM      9  H   TYR A   6      12.207  33.501  65.305  0.00  0.00    +0.150 HD
ATOM     10  O   THR A   5      12.948  35.396  62.871  0.00  0.00    -0.273 OA
BRANCH   8  11
ATOM     11  CA  TYR A   6      13.241  32.701  63.577  0.00  0.00    +0.153 C 
BRANCH  11  12
ATOM     12  C   TYR A   6      14.737  32.976  63.427  0.00  0.00    +0.241 C 
ATOM     13  N   ASP A   7      15.276  33.768  64.349  0.00  0.00    -0.298 N 
ATOM     14  H   ASP A   7      14.668  34.156  65.098  0.00  0.00    +0.150 HD
ATOM     15  O   TYR A   6      15.386  32.483  62.507  0.00  0.00    -0.273 OA
BRANCH  13  16
ATOM     16  CA  ASP A   7      16.691  34.109  64.342  0.00  0.00    +0.148 C 
BRANCH  16  17
ATOM     17  C   ASP A   7      17.446  32.953  65.000  0.00  0.00    +0.227 C 
ATOM     18  O   ASP A   7      16.923  32.310  65.919  0.00  0.00    -0.286 OA
ENDBRANCH  16  17
BRANCH  16  19
ATOM     19  CB  ASP A   7      16.910  35.415  65.117  0.00  0.00    +0.142 C 
BRANCH  19  20
ATOM     20  CG  ASP A   7      18.244  36.055  64.815  0.00  0.00    +0.367 C 
ATOM     21  OD2 ASP A   7      18.649  36.977  65.552  0.00  0.00    -0.246 OA
ATOM     22  OD1 ASP A   7      18.890  35.643  63.829  0.00  0.00    -0.246 OA
ENDBRANCH  19  20
ENDBRANCH  16  19
ENDBRANCH  13  16
ENDBRANCH  11  12
BRANCH  11  23
ATOM     23  CB  TYR A   6      12.584  32.578  62.195  0.00  0.00    +0.055 C 
BRANCH  23  24
ATOM     24  CG  TYR A   6      11.487  31.534  62.142  0.00  0.00    -0.020 A 
ATOM     25  CD2 TYR A   6      10.361  31.626  62.966  0.00  0.00    -0.001 A 
ATOM     26  CE2 TYR A   6       9.356  30.641  62.936  0.00  0.00    +0.036 A 
ATOM     27  CZ  TYR A   6       9.478  29.558  62.070  0.00  0.00    +0.134 A 
ATOM     28  CE1 TYR A   6      10.584  29.448  61.243  0.00  0.00    +0.036 A 
ATOM     29  CD1 TYR A   6      11.584  30.438  61.283  0.00  0.00    -0.001 A 
BRANCH  27  30
ATOM     30  OH  TYR A   6       8.495  28.596  62.031  0.00  0.00    -0.506 OA
ATOM     31  HH  TYR A   6       8.111  28.555  61.119  0.00  0.00    +0.292 HD
ENDBRANCH  27  30
ENDBRANCH  23  24
ENDBRANCH  11  23
ENDBRANCH   8  11
ENDBRANCH   6   7
BRANCH   6  32
ATOM     32  CB  THR A   5      13.029  36.869  65.526  0.00  0.00    +0.137 C 
ATOM     33  CG2 THR A   5      12.460  37.955  66.440  0.00  0.00    +0.034 C 
BRANCH  32  34
ATOM     34  OG1 THR A   5      13.918  36.037  66.285  0.00  0.00    -0.382 OA
ATOM     35  HG1 THR A   5      14.646  36.592  66.663  0.00  0.00    +0.210 HD
ENDBRANCH  32  34
ENDBRANCH   6  32
ENDBRANCH   3   6
ENDBRANCH   1   2
BRANCH   1  37
ATOM     36  C   LYS A   3       9.482  32.617  66.722  0.00  0.00    +0.241 C 
ATOM     37  N   GLU A   4       9.792  33.596  67.561  0.00  0.00    -0.297 N 
ATOM     38  H   GLU A   4      10.450  33.408  68.344  0.00  0.00    +0.150 HD
ATOM     39  O   LYS A   3       8.707  32.765  65.779  0.00  0.00    -0.273 OA
BRANCH  36  40
ATOM     40  CA  LYS A   3      10.130  31.274  66.993  0.00  0.00    +0.149 C 
BRANCH  40  42
ATOM     41  C   THR A   2      12.316  31.944  67.830  0.00  0.00    +0.243 C 
ATOM     42  N   LYS A   3      11.128  31.390  68.045  0.00  0.00    -0.297 N 
ATOM     43  H   LYS A   3      10.905  31.028  68.994  0.00  0.00    +0.150 HD
ATOM     44  O   THR A   2      12.660  32.409  66.744  0.00  0.00    -0.273 OA
BRANCH  41  45
ATOM     45  CA  THR A   2      13.252  32.005  69.017  0.00  0.00    +0.176 C 
BRANCH  45  48
ATOM     46  C   PHE A   1      15.442  30.942  69.350  0.00  0.00    +0.239 C 
ATOM     47  O   PHE A   1      15.231  30.703  70.539  0.00  0.00    -0.274 OA
ATOM     48  N   THR A   2      14.571  31.573  68.562  0.00  0.00    -0.295 N 
ATOM     49  H   THR A   2      14.844  31.767  67.577  0.00  0.00    +0.150 HD
BRANCH  46  50
ATOM     50  CA  PHE A   1      16.757  30.523  68.700  0.00  0.00    +0.149 C 
BRANCH  50  51
ATOM     51  N   PHE A   1      17.853  30.648  69.655  0.00  0.00    -0.238 NA
ATOM     52  H   PHE A   1      18.270  29.798  70.084  0.00  0.00    +0.142 HD
ENDBRANCH  50  51
BRANCH  50  53
ATOM     53  CB  PHE A   1      16.615  29.081  68.187  0.00  0.00    +0.053 C 
BRANCH  53  54
ATOM     54  CG  PHE A   1      15.368  28.858  67.366  0.00  0.00    -0.020 A 
ATOM     55  CD2 PHE A   1      14.258  28.227  67.922  0.00  0.00    -0.004 A 
ATOM     56  CE2 PHE A   1      13.061  28.106  67.201  0.00  0.00    -0.000 A 
ATOM     57  CZ  PHE A   1      12.974  28.617  65.910  0.00  0.00    -0.000 A 
ATOM     58  CE1 PHE A   1      14.078  29.242  65.346  0.00  0.00    -0.000 A 
ATOM     59  CD1 PHE A   1      15.268  29.358  66.072  0.00  0.00    -0.004 A 
ENDBRANCH  53  54
ENDBRANCH  50  53
ENDBRANCH  46  50
ENDBRANCH  45  48
BRANCH  45  60
ATOM     60  CB  THR A   2      13.218  33.464  69.503  0.00  0.00    +0.137 C 
ATOM     61  CG2 THR A   2      11.840  33.778  70.076  0.00  0.00    +0.034 C 
BRANCH  60  62
ATOM     62  OG1 THR A   2      14.205  33.667  70.517  0.00  0.00    -0.382 OA
ATOM     63  HG1 THR A   2      14.174  34.608  70.822  0.00  0.00    +0.210 HD
ENDBRANCH  60  62
ENDBRANCH  45  60
ENDBRANCH  41  45
ENDBRANCH  40  42
BRANCH  40  64
ATOM     64  CB  LYS A   3       9.045  30.274  67.392  0.00  0.00    +0.029 C 
BRANCH  64  65
ATOM     65  CG  LYS A   3       8.228  30.686  68.614  0.00  0.00    +0.000 C 
BRANCH  65  66
ATOM     66  CD  LYS A   3       9.087  30.753  69.872  0.00  0.00    -0.024 C 
BRANCH  66  67
ATOM     67  CE  LYS A   3       9.821  29.434  70.115  0.00  0.00    -0.086 C 
BRANCH  67  68
ATOM     68  NZ  LYS A   3       8.878  28.278  70.195  0.00  0.00    +0.380 N 
ATOM     69  HZ1 LYS A   3       8.211  28.430  70.979  0.00  0.00    -0.089 HD
ATOM     70  HZ2 LYS A   3       9.416  27.404  70.360  0.00  0.00    -0.089 HD
ATOM     71  HZ3 LYS A   3       8.352  28.199  69.301  0.00  0.00    -0.089 HD
ENDBRANCH  67  68
ENDBRANCH  66  67
ENDBRANCH  65  66
ENDBRANCH  64  65
ENDBRANCH  40  64
ENDBRANCH  36  40
ENDBRANCH   1  37
BRANCH   1  72
ATOM     72  CB  GLU A   4       9.398  35.725  68.709  0.00  0.00    +0.041 C 
BRANCH  72  73
ATOM     73  CG  GLU A   4       8.673  35.102  69.903  0.00  0.00    +0.116 C 
BRANCH  73  74
ATOM     74  CD  GLU A   4       7.162  35.047  69.722  0.00  0.00    +0.365 C 
ATOM     75  OE2 GLU A   4       6.497  34.313  70.483  0.00  0.00    -0.246 OA
ATOM     76  OE1 GLU A   4       6.637  35.743  68.829  0.00  0.00    -0.246 OA
ENDBRANCH  73  74
ENDBRANCH  72  73
ENDBRANCH   1  72
TORSDOF 33
REMARK  Name = ../refined-set-2016/1z6e/1z6e_pocket.pdb
REMARK  242 active torsions:
REMARK  status: ('A' for Active; 'I' for Inactive)
REMARK    1  A    between atoms: _1  and  _5
REMARK    2  A    between atoms: _5  and  _6
REMARK    3  A    between atoms: _5  and  _8
REMARK    4  A    between atoms: _8  and  _9
REMARK    5  A    between atoms: _12  and  _14
REMARK    6  A    between atoms: _14  and  _15
REMARK    7  A    between atoms: _14  and  _17
REMARK    8  A    between atoms: _20  and  _22
REMARK    9  A    between atoms: _22  and  _23
REMARK   10  A    between atoms: _22  and  _25
REMARK   11  A    between atoms: _25  and  _26
REMARK   12  A    between atoms: _31  and  _33
REMARK   13  A    between atoms: _33  and  _34
REMARK   14  A    between atoms: _33  and  _36
REMARK   15  A    between atoms: _38  and  _40
REMARK   16  A    between atoms: _40  and  _41
REMARK   17  A    between atoms: _40  and  _43
REMARK   18  A    between atoms: _43  and  _44
REMARK   19  A    between atoms: _44  and  _45
REMARK   20  A    between atoms: _50  and  _52
REMARK   21  A    between atoms: _52  and  _53
REMARK   22  A    between atoms: _52  and  _55
REMARK   23  A    between atoms: _55  and  _56
REMARK   24  A    between atoms: _62  and  _64
REMARK   25  A    between atoms: _64  and  _65
REMARK   26  A    between atoms: _64  and  _67
REMARK   27  A    between atoms: _67  and  _68
REMARK   28  A    between atoms: _71  and  _73
REMARK   29  A    between atoms: _73  and  _74
REMARK   30  A    between atoms: _73  and  _76
REMARK   31  A    between atoms: _76  and  _77
REMARK   32  A    between atoms: _77  and  _78
REMARK   33  A    between atoms: _78  and  _79
REMARK   34  A    between atoms: _79  and  _80
REMARK   35  A    between atoms: _84  and  _86
REMARK   36  A    between atoms: _86  and  _87
REMARK   37  A    between atoms: _86  and  _89
REMARK   38  A    between atoms: _89  and  _90
REMARK   39  A    between atoms: _90  and  _91
REMARK   40  A    between atoms: _94  and  _96
REMARK   41  A    between atoms: _96  and  _97
REMARK   42  A    between atoms: _96  and  _99
REMARK   43  A    between atoms: _99  and  _100
REMARK   44  A    between atoms: _103  and  _105
REMARK   45  A    between atoms: _105  and  _106
REMARK   46  A    between atoms: _105  and  _108
REMARK   47  A    between atoms: _108  and  _109
REMARK   48  A    between atoms: _114  and  _115
REMARK   49  A    between atoms: _117  and  _119
REMARK   50  A    between atoms: _119  and  _120
REMARK   51  A    between atoms: _119  and  _122
REMARK   52  A    between atoms: _122  and  _123
REMARK   53  A    between atoms: _126  and  _128
REMARK   54  A    between atoms: _128  and  _129
REMARK   55  A    between atoms: _128  and  _131
REMARK   56  A    between atoms: _131  and  _132
REMARK   57  A    between atoms: _135  and  _137
REMARK   58  A    between atoms: _137  and  _138
REMARK   59  A    between atoms: _137  and  _140
REMARK   60  A    between atoms: _143  and  _145
REMARK   61  A    between atoms: _145  and  _146
REMARK   62  A    between atoms: _148  and  _150
REMARK   63  A    between atoms: _150  and  _151
REMARK   64  A    between atoms: _150  and  _153
REMARK   65  A    between atoms: _153  and  _154
REMARK   66  A    between atoms: _154  and  _155
REMARK   67  A    between atoms: _155  and  _156
REMARK   68  A    between atoms: _165  and  _167
REMARK   69  A    between atoms: _167  and  _168
REMARK   70  A    between atoms: _167  and  _170
REMARK   71  A    between atoms: _170  and  _171
REMARK   72  A    between atoms: _176  and  _178
REMARK   73  A    between atoms: _178  and  _179
REMARK   74  A    between atoms: _178  and  _181
REMARK   75  A    between atoms: _181  and  _182
REMARK   76  A    between atoms: _182  and  _183
REMARK   77  A    between atoms: _186  and  _188
REMARK   78  A    between atoms: _188  and  _189
REMARK   79  A    between atoms: _188  and  _191
REMARK   80  A    between atoms: _191  and  _192
REMARK   81  A    between atoms: _192  and  _193
REMARK   82  A    between atoms: _193  and  _194
REMARK   83  A    between atoms: _194  and  _195
REMARK   84  A    between atoms: _199  and  _201
REMARK   85  A    between atoms: _201  and  _202
REMARK   86  A    between atoms: _204  and  _206
REMARK   87  A    between atoms: _206  and  _207
REMARK   88  A    between atoms: _206  and  _209
REMARK   89  A    between atoms: _209  and  _210
REMARK   90  A    between atoms: _210  and  _211
REMARK   91  A    between atoms: _211  and  _212
REMARK   92  A    between atoms: _221  and  _223
REMARK   93  A    between atoms: _223  and  _224
REMARK   94  A    between atoms: _223  and  _226
REMARK   95  A    between atoms: _226  and  _227
REMARK   96  A    between atoms: _227  and  _228
REMARK   97  A    between atoms: _233  and  _235
REMARK   98  A    between atoms: _235  and  _236
REMARK   99  A    between atoms: _235  and  _238
REMARK  100  A    between atoms: _238  and  _239
REMARK  101  A    between atoms: _242  and  _244
REMARK  102  A    between atoms: _244  and  _245
REMARK  103  A    between atoms: _244  and  _247
REMARK  104  A    between atoms: _250  and  _252
REMARK  105  A    between atoms: _252  and  _253
REMARK  106  A    between atoms: _252  and  _255
REMARK  107  A    between atoms: _255  and  _256
REMARK  108  A    between atoms: _258  and  _260
REMARK  109  A    between atoms: _260  and  _261
REMARK  110  A    between atoms: _260  and  _263
REMARK  111  A    between atoms: _263  and  _264
REMARK  112  A    between atoms: _266  and  _268
REMARK  113  A    between atoms: _268  and  _269
REMARK  114  A    between atoms: _268  and  _271
REMARK  115  A    between atoms: _271  and  _272
REMARK  116  A    between atoms: _278  and  _280
REMARK  117  A    between atoms: _280  and  _281
REMARK  118  A    between atoms: _280  and  _283
REMARK  119  A    between atoms: _283  and  _284
REMARK  120  A    between atoms: _287  and  _289
REMARK  121  A    between atoms: _289  and  _290
REMARK  122  A    between atoms: _289  and  _292
REMARK  123  A    between atoms: _292  and  _293
REMARK  124  A    between atoms: _296  and  _298
REMARK  125  A    between atoms: _298  and  _299
REMARK  126  A    between atoms: _298  and  _301
REMARK  127  A    between atoms: _301  and  _302
REMARK  128  A    between atoms: _305  and  _307
REMARK  129  A    between atoms: _307  and  _308
REMARK  130  A    between atoms: _307  and  _310
REMARK  131  A    between atoms: _310  and  _311
REMARK  132  A    between atoms: _311  and  _312
REMARK  133  A    between atoms: _314  and  _316
REMARK  134  A    between atoms: _316  and  _317
REMARK  135  A    between atoms: _316  and  _319
REMARK  136  A    between atoms: _321  and  _323
REMARK  137  A    between atoms: _323  and  _324
REMARK  138  A    between atoms: _327  and  _329
REMARK  139  A    between atoms: _329  and  _330
REMARK  140  A    between atoms: _332  and  _334
REMARK  141  A    between atoms: _334  and  _335
REMARK  142  A    between atoms: _334  and  _337
REMARK  143  A    between atoms: _337  and  _338
REMARK  144  A    between atoms: _343  and  _344
REMARK  145  A    between atoms: _346  and  _348
REMARK  146  A    between atoms: _348  and  _349
REMARK  147  A    between atoms: _348  and  _351
REMARK  148  A    between atoms: _351  and  _352
REMARK  149  A    between atoms: _352  and  _353
REMARK  150  A    between atoms: _356  and  _358
REMARK  151  A    between atoms: _358  and  _359
REMARK  152  A    between atoms: _358  and  _361
REMARK  153  A    between atoms: _361  and  _362
REMARK  154  A    between atoms: _365  and  _367
REMARK  155  A    between atoms: _367  and  _368
REMARK  156  A    between atoms: _371  and  _373
REMARK  157  A    between atoms: _373  and  _374
REMARK  158  A    between atoms: _373  and  _376
REMARK  159  A    between atoms: _376  and  _377
REMARK  160  A    between atoms: _377  and  _500
REMARK  161  A    between atoms: _378  and  _380
REMARK  162  A    between atoms: _380  and  _381
REMARK  163  A    between atoms: _380  and  _383
REMARK  164  A    between atoms: _383  and  _384
REMARK  165  A    between atoms: _384  and  _385
REMARK  166  A    between atoms: _390  and  _392
REMARK  167  A    between atoms: _392  and  _393
REMARK  168  A    between atoms: _395  and  _397
REMARK  169  A    between atoms: _397  and  _398
REMARK  170  A    between atoms: _397  and  _400
REMARK  171  A    between atoms: _400  and  _401
REMARK  172  A    between atoms: _404  and  _406
REMARK  173  A    between atoms: _406  and  _407
REMARK  174  A    between atoms: _406  and  _409
REMARK  175  A    between atoms: _409  and  _410
REMARK  176  A    between atoms: _412  and  _414
REMARK  177  A    between atoms: _414  and  _415
REMARK  178  A    between atoms: _417  and  _419
REMARK  179  A    between atoms: _419  and  _420
REMARK  180  A    between atoms: _422  and  _424
REMARK  181  A    between atoms: _424  and  _425
REMARK  182  A    between atoms: _424  and  _427
REMARK  183  A    between atoms: _427  and  _428
REMARK  184  A    between atoms: _433  and  _435
REMARK  185  A    between atoms: _435  and  _436
REMARK  186  A    between atoms: _435  and  _438
REMARK  187  A    between atoms: _438  and  _439
REMARK  188  A    between atoms: _442  and  _444
REMARK  189  A    between atoms: _444  and  _445
REMARK  190  A    between atoms: _444  and  _447
REMARK  191  A    between atoms: _450  and  _452
REMARK  192  A    between atoms: _452  and  _453
REMARK  193  A    between atoms: _452  and  _455
REMARK  194  A    between atoms: _455  and  _456
REMARK  195  A    between atoms: _458  and  _460
REMARK  196  A    between atoms: _460  and  _461
REMARK  197  A    between atoms: _460  and  _463
REMARK  198  A    between atoms: _463  and  _464
REMARK  199  A    between atoms: _474  and  _476
REMARK  200  A    between atoms: _476  and  _477
REMARK  201  A    between atoms: _479  and  _481
REMARK  202  A    between atoms: _481  and  _482
REMARK  203  A    between atoms: _481  and  _484
REMARK  204  A    between atoms: _484  and  _485
REMARK  205  A    between atoms: _485  and  _486
REMARK  206  A    between atoms: _489  and  _491
REMARK  207  A    between atoms: _491  and  _492
REMARK  208  A    between atoms: _494  and  _496
REMARK  209  A    between atoms: _496  and  _497
REMARK  210  A    between atoms: _496  and  _499
REMARK  211  A    between atoms: _499  and  _500
REMARK  212  A    between atoms: _501  and  _503
REMARK  213  A    between atoms: _503  and  _504
REMARK  214  A    between atoms: _507  and  _509
REMARK  215  A    between atoms: _509  and  _510
REMARK  216  A    between atoms: _509  and  _512
REMARK  217  A    between atoms: _512  and  _513
REMARK  218  A    between atoms: _513  and  _514
REMARK  219  A    between atoms: _514  and  _515
REMARK  220  A    between atoms: _524  and  _526
REMARK  221  A    between atoms: _526  and  _527
REMARK  222  A    between atoms: _526  and  _529
REMARK  223  A    between atoms: _529  and  _530
REMARK  224  A    between atoms: _530  and  _531
REMARK  225  A    between atoms: _531  and  _532
REMARK  226  A    between atoms: _532  and  _533
REMARK  227  A    between atoms: _537  and  _539
REMARK  228  A    between atoms: _539  and  _540
REMARK  229  A    between atoms: _539  and  _542
REMARK  230  A    between atoms: _542  and  _543
REMARK  231  A    between atoms: _548  and  _549
REMARK  232  A    between atoms: _551  and  _553
REMARK  233  A    between atoms: _553  and  _554
REMARK  234  A    between atoms: _556  and  _558
REMARK  235  A    between atoms: _558  and  _559
REMARK  236  A    between atoms: _558  and  _561
REMARK  237  A    between atoms: _561  and  _562
REMARK  238  A    between atoms: _565  and  _567
REMARK  239  A    between atoms: _567  and  _568
REMARK  240  A    between atoms: _567  and  _570
REMARK  241  A    between atoms: _570  and  _571
REMARK  242  A    between atoms: _576  and  _577
REMARK                            x       y       z     vdW  Elec       q    Type
REMARK                         _______ _______ _______ _____ _____    ______ ____
ROOT
ATOM      1  CA  ASP A   1      17.489  28.891  63.257  0.00  0.00    +0.144 C 
ENDROOT
BRANCH   1   2
ATOM      2  N   ASP A   1      18.197  30.108  63.633  0.00  0.00    -0.239 NA
ATOM      3  H   ASP A   1      18.252  30.890  62.950  0.00  0.00    +0.142 HD
ENDBRANCH   1   2
BRANCH   1   4
ATOM      4  C   ASP A   1      18.511  27.836  62.838  0.00  0.00    +0.225 C 
ATOM      5  O   ASP A   1      18.697  27.570  61.645  0.00  0.00    -0.287 OA
ENDBRANCH   1   4
BRANCH   1   6
ATOM      6  CB  ASP A   1      16.517  29.193  62.110  0.00  0.00    +0.139 C 
BRANCH   6   7
ATOM      7  CG  ASP A   1      15.459  28.124  61.942  0.00  0.00    +0.367 C 
ATOM      8  OD2 ASP A   1      15.321  27.294  62.864  0.00  0.00    -0.246 OA
ATOM      9  OD1 ASP A   1      14.752  28.112  60.904  0.00  0.00    -0.246 OA
ENDBRANCH   6   7
ENDBRANCH   1   6
TORSDOF 4
REMARK  Name = ../refined-set-2016/1z6e/1z6e_pocket.pdb
REMARK  242 active torsions:
REMARK  status: ('A' for Active; 'I' for Inactive)
REMARK    1  A    between atoms: _1  and  _5
REMARK    2  A    between atoms: _5  and  _6
REMARK    3  A    between atoms: _5  and  _8
REMARK    4  A    between atoms: _8  and  _9
REMARK    5  A    between atoms: _12  and  _14
REMARK    6  A    between atoms: _14  and  _15
REMARK    7  A    between atoms: _14  and  _17
REMARK    8  A    between atoms: _20  and  _22
REMARK    9  A    between atoms: _22  and  _23
REMARK   10  A    between atoms: _22  and  _25
REMARK   11  A    between atoms: _25  and  _26
REMARK   12  A    between atoms: _31  and  _33
REMARK   13  A    between atoms: _33  and  _34
REMARK   14  A    between atoms: _33  and  _36
REMARK   15  A    between atoms: _38  and  _40
REMARK   16  A    between atoms: _40  and  _41
REMARK   17  A    between atoms: _40  and  _43
REMARK   18  A    between atoms: _43  and  _44
REMARK   19  A    between atoms: _44  and  _45
REMARK   20  A    between atoms: _50  and  _52
REMARK   21  A    between atoms: _52  and  _53
REMARK   22  A    between atoms: _52  and  _55
REMARK   23  A    between atoms: _55  and  _56
REMARK   24  A    between atoms: _62  and  _64
REMARK   25  A    between atoms: _64  and  _65
REMARK   26  A    between atoms: _64  and  _67
REMARK   27  A    between atoms: _67  and  _68
REMARK   28  A    between atoms: _71  and  _73
REMARK   29  A    between atoms: _73  and  _74
REMARK   30  A    between atoms: _73  and  _76
REMARK   31  A    between atoms: _76  and  _77
REMARK   32  A    between atoms: _77  and  _78
REMARK   33  A    between atoms: _78  and  _79
REMARK   34  A    between atoms: _79  and  _80
REMARK   35  A    between atoms: _84  and  _86
REMARK   36  A    between atoms: _86  and  _87
REMARK   37  A    between atoms: _86  and  _89
REMARK   38  A    between atoms: _89  and  _90
REMARK   39  A    between atoms: _90  and  _91
REMARK   40  A    between atoms: _94  and  _96
REMARK   41  A    between atoms: _96  and  _97
REMARK   42  A    between atoms: _96  and  _99
REMARK   43  A    between atoms: _99  and  _100
REMARK   44  A    between atoms: _103  and  _105
REMARK   45  A    between atoms: _105  and  _106
REMARK   46  A    between atoms: _105  and  _108
REMARK   47  A    between atoms: _108  and  _109
REMARK   48  A    between atoms: _114  and  _115
REMARK   49  A    between atoms: _117  and  _119
REMARK   50  A    between atoms: _119  and  _120
REMARK   51  A    between atoms: _119  and  _122
REMARK   52  A    between atoms: _122  and  _123
REMARK   53  A    between atoms: _126  and  _128
REMARK   54  A    between atoms: _128  and  _129
REMARK   55  A    between atoms: _128  and  _131
REMARK   56  A    between atoms: _131  and  _132
REMARK   57  A    between atoms: _135  and  _137
REMARK   58  A    between atoms: _137  and  _138
REMARK   59  A    between atoms: _137  and  _140
REMARK   60  A    between atoms: _143  and  _145
REMARK   61  A    between atoms: _145  and  _146
REMARK   62  A    between atoms: _148  and  _150
REMARK   63  A    between atoms: _150  and  _151
REMARK   64  A    between atoms: _150  and  _153
REMARK   65  A    between atoms: _153  and  _154
REMARK   66  A    between atoms: _154  and  _155
REMARK   67  A    between atoms: _155  and  _156
REMARK   68  A    between atoms: _165  and  _167
REMARK   69  A    between atoms: _167  and  _168
REMARK   70  A    between atoms: _167  and  _170
REMARK   71  A    between atoms: _170  and  _171
REMARK   72  A    between atoms: _176  and  _178
REMARK   73  A    between atoms: _178  and  _179
REMARK   74  A    between atoms: _178  and  _181
REMARK   75  A    between atoms: _181  and  _182
REMARK   76  A    between atoms: _182  and  _183
REMARK   77  A    between atoms: _186  and  _188
REMARK   78  A    between atoms: _188  and  _189
REMARK   79  A    between atoms: _188  and  _191
REMARK   80  A    between atoms: _191  and  _192
REMARK   81  A    between atoms: _192  and  _193
REMARK   82  A    between atoms: _193  and  _194
REMARK   83  A    between atoms: _194  and  _195
REMARK   84  A    between atoms: _199  and  _201
REMARK   85  A    between atoms: _201  and  _202
REMARK   86  A    between atoms: _204  and  _206
REMARK   87  A    between atoms: _206  and  _207
REMARK   88  A    between atoms: _206  and  _209
REMARK   89  A    between atoms: _209  and  _210
REMARK   90  A    between atoms: _210  and  _211
REMARK   91  A    between atoms: _211  and  _212
REMARK   92  A    between atoms: _221  and  _223
REMARK   93  A    between atoms: _223  and  _224
REMARK   94  A    between atoms: _223  and  _226
REMARK   95  A    between atoms: _226  and  _227
REMARK   96  A    between atoms: _227  and  _228
REMARK   97  A    between atoms: _233  and  _235
REMARK   98  A    between atoms: _235  and  _236
REMARK   99  A    between atoms: _235  and  _238
REMARK  100  A    between atoms: _238  and  _239
REMARK  101  A    between atoms: _242  and  _244
REMARK  102  A    between atoms: _244  and  _245
REMARK  103  A    between atoms: _244  and  _247
REMARK  104  A    between atoms: _250  and  _252
REMARK  105  A    between atoms: _252  and  _253
REMARK  106  A    between atoms: _252  and  _255
REMARK  107  A    between atoms: _255  and  _256
REMARK  108  A    between atoms: _258  and  _260
REMARK  109  A    between atoms: _260  and  _261
REMARK  110  A    between atoms: _260  and  _263
REMARK  111  A    between atoms: _263  and  _264
REMARK  112  A    between atoms: _266  and  _268
REMARK  113  A    between atoms: _268  and  _269
REMARK  114  A    between atoms: _268  and  _271
REMARK  115  A    between atoms: _271  and  _272
REMARK  116  A    between atoms: _278  and  _280
REMARK  117  A    between atoms: _280  and  _281
REMARK  118  A    between atoms: _280  and  _283
REMARK  119  A    between atoms: _283  and  _284
REMARK  120  A    between atoms: _287  and  _289
REMARK  121  A    between atoms: _289  and  _290
REMARK  122  A    between atoms: _289  and  _292
REMARK  123  A    between atoms: _292  and  _293
REMARK  124  A    between atoms: _296  and  _298
REMARK  125  A    between atoms: _298  and  _299
REMARK  126  A    between atoms: _298  and  _301
REMARK  127  A    between atoms: _301  and  _302
REMARK  128  A    between atoms: _305  and  _307
REMARK  129  A    between atoms: _307  and  _308
REMARK  130  A    between atoms: _307  and  _310
REMARK  131  A    between atoms: _310  and  _311
REMARK  132  A    between atoms: _311  and  _312
REMARK  133  A    between atoms: _314  and  _316
REMARK  134  A    between atoms: _316  and  _317
REMARK  135  A    between atoms: _316  and  _319
REMARK  136  A    between atoms: _321  and  _323
REMARK  137  A    between atoms: _323  and  _324
REMARK  138  A    between atoms: _327  and  _329
REMARK  139  A    between atoms: _329  and  _330
REMARK  140  A    between atoms: _332  and  _334
REMARK  141  A    between atoms: _334  and  _335
REMARK  142  A    between atoms: _334  and  _337
REMARK  143  A    between atoms: _337  and  _338
REMARK  144  A    between atoms: _343  and  _344
REMARK  145  A    between atoms: _346  and  _348
REMARK  146  A    between atoms: _348  and  _349
REMARK  147  A    between atoms: _348  and  _351
REMARK  148  A    between atoms: _351  and  _352
REMARK  149  A    between atoms: _352  and  _353
REMARK  150  A    between atoms: _356  and  _358
REMARK  151  A    between atoms: _358  and  _359
REMARK  152  A    between atoms: _358  and  _361
REMARK  153  A    between atoms: _361  and  _362
REMARK  154  A    between atoms: _365  and  _367
REMARK  155  A    between atoms: _367  and  _368
REMARK  156  A    between atoms: _371  and  _373
REMARK  157  A    between atoms: _373  and  _374
REMARK  158  A    between atoms: _373  and  _376
REMARK  159  A    between atoms: _376  and  _377
REMARK  160  A    between atoms: _377  and  _500
REMARK  161  A    between atoms: _378  and  _380
REMARK  162  A    between atoms: _380  and  _381
REMARK  163  A    between atoms: _380  and  _383
REMARK  164  A    between atoms: _383  and  _384
REMARK  165  A    between atoms: _384  and  _385
REMARK  166  A    between atoms: _390  and  _392
REMARK  167  A    between atoms: _392  and  _393
REMARK  168  A    between atoms: _395  and  _397
REMARK  169  A    between atoms: _397  and  _398
REMARK  170  A    between atoms: _397  and  _400
REMARK  171  A    between atoms: _400  and  _401
REMARK  172  A    between atoms: _404  and  _406
REMARK  173  A    between atoms: _406  and  _407
REMARK  174  A    between atoms: _406  and  _409
REMARK  175  A    between atoms: _409  and  _410
REMARK  176  A    between atoms: _412  and  _414
REMARK  177  A    between atoms: _414  and  _415
REMARK  178  A    between atoms: _417  and  _419
REMARK  179  A    between atoms: _419  and  _420
REMARK  180  A    between atoms: _422  and  _424
REMARK  181  A    between atoms: _424  and  _425
REMARK  182  A    between atoms: _424  and  _427
REMARK  183  A    between atoms: _427  and  _428
REMARK  184  A    between atoms: _433  and  _435
REMARK  185  A    between atoms: _435  and  _436
REMARK  186  A    between atoms: _435  and  _438
REMARK  187  A    between atoms: _438  and  _439
REMARK  188  A    between atoms: _442  and  _444
REMARK  189  A    between atoms: _444  and  _445
REMARK  190  A    between atoms: _444  and  _447
REMARK  191  A    between atoms: _450  and  _452
REMARK  192  A    between atoms: _452  and  _453
REMARK  193  A    between atoms: _452  and  _455
REMARK  194  A    between atoms: _455  and  _456
REMARK  195  A    between atoms: _458  and  _460
REMARK  196  A    between atoms: _460  and  _461
REMARK  197  A    between atoms: _460  and  _463
REMARK  198  A    between atoms: _463  and  _464
REMARK  199  A    between atoms: _474  and  _476
REMARK  200  A    between atoms: _476  and  _477
REMARK  201  A    between atoms: _479  and  _481
REMARK  202  A    between atoms: _481  and  _482
REMARK  203  A    between atoms: _481  and  _484
REMARK  204  A    between atoms: _484  and  _485
REMARK  205  A    between atoms: _485  and  _486
REMARK  206  A    between atoms: _489  and  _491
REMARK  207  A    between atoms: _491  and  _492
REMARK  208  A    between atoms: _494  and  _496
REMARK  209  A    between atoms: _496  and  _497
REMARK  210  A    between atoms: _496  and  _499
REMARK  211  A    between atoms: _499  and  _500
REMARK  212  A    between atoms: _501  and  _503
REMARK  213  A    between atoms: _503  and  _504
REMARK  214  A    between atoms: _507  and  _509
REMARK  215  A    between atoms: _509  and  _510
REMARK  216  A    between atoms: _509  and  _512
REMARK  217  A    between atoms: _512  and  _513
REMARK  218  A    between atoms: _513  and  _514
REMARK  219  A    between atoms: _514  and  _515
REMARK  220  A    between atoms: _524  and  _526
REMARK  221  A    between atoms: _526  and  _527
REMARK  222  A    between atoms: _526  and  _529
REMARK  223  A    between atoms: _529  and  _530
REMARK  224  A    between atoms: _530  and  _531
REMARK  225  A    between atoms: _531  and  _532
REMARK  226  A    between atoms: _532  and  _533
REMARK  227  A    between atoms: _537  and  _539
REMARK  228  A    between atoms: _539  and  _540
REMARK  229  A    between atoms: _539  and  _542
REMARK  230  A    between atoms: _542  and  _543
REMARK  231  A    between atoms: _548  and  _549
REMARK  232  A    between atoms: _551  and  _553
REMARK  233  A    between atoms: _553  and  _554
REMARK  234  A    between atoms: _556  and  _558
REMARK  235  A    between atoms: _558  and  _559
REMARK  236  A    between atoms: _558  and  _561
REMARK  237  A    between atoms: _561  and  _562
REMARK  238  A    between atoms: _565  and  _567
REMARK  239  A    between atoms: _567  and  _568
REMARK  240  A    between atoms: _567  and  _570
REMARK  241  A    between atoms: _570  and  _571
REMARK  242  A    between atoms: _576  and  _577
REMARK                            x       y       z     vdW  Elec       q    Type
REMARK                         _______ _______ _______ _____ _____    ______ ____
ROOT
ATOM      1  CA  VAL A   1      18.612  23.670  47.786  0.00  0.00    +0.133 C 
ENDROOT
BRANCH   1   2
ATOM      2  CB  VAL A   1      17.566  24.766  48.165  0.00  0.00    +0.023 C 
ATOM      3  CG2 VAL A   1      16.766  24.328  49.393  0.00  0.00    +0.002 C 
ATOM      4  CG1 VAL A   1      16.627  25.050  46.981  0.00  0.00    +0.002 C 
ENDBRANCH   1   2
BRANCH   1   5
ATOM      5  N   VAL A   1      19.402  24.047  46.620  0.00  0.00    -0.239 NA
ATOM      6  H   VAL A   1      18.926  24.315  45.735  0.00  0.00    +0.142 HD
ENDBRANCH   1   5
BRANCH   1   7
ATOM      7  C   VAL A   1      17.920  22.355  47.422  0.00  0.00    +0.224 C 
ATOM      8  O   VAL A   1      17.673  22.087  46.240  0.00  0.00    -0.287 OA
ENDBRANCH   1   7
TORSDOF 3
REMARK  Name = ../refined-set-2016/1z6e/1z6e_pocket.pdb
REMARK  242 active torsions:
REMARK  status: ('A' for Active; 'I' for Inactive)
REMARK    1  A    between atoms: _1  and  _5
REMARK    2  A    between atoms: _5  and  _6
REMARK    3  A    between atoms: _5  and  _8
REMARK    4  A    between atoms: _8  and  _9
REMARK    5  A    between atoms: _12  and  _14
REMARK    6  A    between atoms: _14  and  _15
REMARK    7  A    between atoms: _14  and  _17
REMARK    8  A    between atoms: _20  and  _22
REMARK    9  A    between atoms: _22  and  _23
REMARK   10  A    between atoms: _22  and  _25
REMARK   11  A    between atoms: _25  and  _26
REMARK   12  A    between atoms: _31  and  _33
REMARK   13  A    between atoms: _33  and  _34
REMARK   14  A    between atoms: _33  and  _36
REMARK   15  A    between atoms: _38  and  _40
REMARK   16  A    between atoms: _40  and  _41
REMARK   17  A    between atoms: _40  and  _43
REMARK   18  A    between atoms: _43  and  _44
REMARK   19  A    between atoms: _44  and  _45
REMARK   20  A    between atoms: _50  and  _52
REMARK   21  A    between atoms: _52  and  _53
REMARK   22  A    between atoms: _52  and  _55
REMARK   23  A    between atoms: _55  and  _56
REMARK   24  A    between atoms: _62  and  _64
REMARK   25  A    between atoms: _64  and  _65
REMARK   26  A    between atoms: _64  and  _67
REMARK   27  A    between atoms: _67  and  _68
REMARK   28  A    between atoms: _71  and  _73
REMARK   29  A    between atoms: _73  and  _74
REMARK   30  A    between atoms: _73  and  _76
REMARK   31  A    between atoms: _76  and  _77
REMARK   32  A    between atoms: _77  and  _78
REMARK   33  A    between atoms: _78  and  _79
REMARK   34  A    between atoms: _79  and  _80
REMARK   35  A    between atoms: _84  and  _86
REMARK   36  A    between atoms: _86  and  _87
REMARK   37  A    between atoms: _86  and  _89
REMARK   38  A    between atoms: _89  and  _90
REMARK   39  A    between atoms: _90  and  _91
REMARK   40  A    between atoms: _94  and  _96
REMARK   41  A    between atoms: _96  and  _97
REMARK   42  A    between atoms: _96  and  _99
REMARK   43  A    between atoms: _99  and  _100
REMARK   44  A    between atoms: _103  and  _105
REMARK   45  A    between atoms: _105  and  _106
REMARK   46  A    between atoms: _105  and  _108
REMARK   47  A    between atoms: _108  and  _109
REMARK   48  A    between atoms: _114  and  _115
REMARK   49  A    between atoms: _117  and  _119
REMARK   50  A    between atoms: _119  and  _120
REMARK   51  A    between atoms: _119  and  _122
REMARK   52  A    between atoms: _122  and  _123
REMARK   53  A    between atoms: _126  and  _128
REMARK   54  A    between atoms: _128  and  _129
REMARK   55  A    between atoms: _128  and  _131
REMARK   56  A    between atoms: _131  and  _132
REMARK   57  A    between atoms: _135  and  _137
REMARK   58  A    between atoms: _137  and  _138
REMARK   59  A    between atoms: _137  and  _140
REMARK   60  A    between atoms: _143  and  _145
REMARK   61  A    between atoms: _145  and  _146
REMARK   62  A    between atoms: _148  and  _150
REMARK   63  A    between atoms: _150  and  _151
REMARK   64  A    between atoms: _150  and  _153
REMARK   65  A    between atoms: _153  and  _154
REMARK   66  A    between atoms: _154  and  _155
REMARK   67  A    between atoms: _155  and  _156
REMARK   68  A    between atoms: _165  and  _167
REMARK   69  A    between atoms: _167  and  _168
REMARK   70  A    between atoms: _167  and  _170
REMARK   71  A    between atoms: _170  and  _171
REMARK   72  A    between atoms: _176  and  _178
REMARK   73  A    between atoms: _178  and  _179
REMARK   74  A    between atoms: _178  and  _181
REMARK   75  A    between atoms: _181  and  _182
REMARK   76  A    between atoms: _182  and  _183
REMARK   77  A    between atoms: _186  and  _188
REMARK   78  A    between atoms: _188  and  _189
REMARK   79  A    between atoms: _188  and  _191
REMARK   80  A    between atoms: _191  and  _192
REMARK   81  A    between atoms: _192  and  _193
REMARK   82  A    between atoms: _193  and  _194
REMARK   83  A    between atoms: _194  and  _195
REMARK   84  A    between atoms: _199  and  _201
REMARK   85  A    between atoms: _201  and  _202
REMARK   86  A    between atoms: _204  and  _206
REMARK   87  A    between atoms: _206  and  _207
REMARK   88  A    between atoms: _206  and  _209
REMARK   89  A    between atoms: _209  and  _210
REMARK   90  A    between atoms: _210  and  _211
REMARK   91  A    between atoms: _211  and  _212
REMARK   92  A    between atoms: _221  and  _223
REMARK   93  A    between atoms: _223  and  _224
REMARK   94  A    between atoms: _223  and  _226
REMARK   95  A    between atoms: _226  and  _227
REMARK   96  A    between atoms: _227  and  _228
REMARK   97  A    between atoms: _233  and  _235
REMARK   98  A    between atoms: _235  and  _236
REMARK   99  A    between atoms: _235  and  _238
REMARK  100  A    between atoms: _238  and  _239
REMARK  101  A    between atoms: _242  and  _244
REMARK  102  A    between atoms: _244  and  _245
REMARK  103  A    between atoms: _244  and  _247
REMARK  104  A    between atoms: _250  and  _252
REMARK  105  A    between atoms: _252  and  _253
REMARK  106  A    between atoms: _252  and  _255
REMARK  107  A    between atoms: _255  and  _256
REMARK  108  A    between atoms: _258  and  _260
REMARK  109  A    between atoms: _260  and  _261
REMARK  110  A    between atoms: _260  and  _263
REMARK  111  A    between atoms: _263  and  _264
REMARK  112  A    between atoms: _266  and  _268
REMARK  113  A    between atoms: _268  and  _269
REMARK  114  A    between atoms: _268  and  _271
REMARK  115  A    between atoms: _271  and  _272
REMARK  116  A    between atoms: _278  and  _280
REMARK  117  A    between atoms: _280  and  _281
REMARK  118  A    between atoms: _280  and  _283
REMARK  119  A    between atoms: _283  and  _284
REMARK  120  A    between atoms: _287  and  _289
REMARK  121  A    between atoms: _289  and  _290
REMARK  122  A    between atoms: _289  and  _292
REMARK  123  A    between atoms: _292  and  _293
REMARK  124  A    between atoms: _296  and  _298
REMARK  125  A    between atoms: _298  and  _299
REMARK  126  A    between atoms: _298  and  _301
REMARK  127  A    between atoms: _301  and  _302
REMARK  128  A    between atoms: _305  and  _307
REMARK  129  A    between atoms: _307  and  _308
REMARK  130  A    between atoms: _307  and  _310
REMARK  131  A    between atoms: _310  and  _311
REMARK  132  A    between atoms: _311  and  _312
REMARK  133  A    between atoms: _314  and  _316
REMARK  134  A    between atoms: _316  and  _317
REMARK  135  A    between atoms: _316  and  _319
REMARK  136  A    between atoms: _321  and  _323
REMARK  137  A    between atoms: _323  and  _324
REMARK  138  A    between atoms: _327  and  _329
REMARK  139  A    between atoms: _329  and  _330
REMARK  140  A    between atoms: _332  and  _334
REMARK  141  A    between atoms: _334  and  _335
REMARK  142  A    between atoms: _334  and  _337
REMARK  143  A    between atoms: _337  and  _338
REMARK  144  A    between atoms: _343  and  _344
REMARK  145  A    between atoms: _346  and  _348
REMARK  146  A    between atoms: _348  and  _349
REMARK  147  A    between atoms: _348  and  _351
REMARK  148  A    between atoms: _351  and  _352
REMARK  149  A    between atoms: _352  and  _353
REMARK  150  A    between atoms: _356  and  _358
REMARK  151  A    between atoms: _358  and  _359
REMARK  152  A    between atoms: _358  and  _361
REMARK  153  A    between atoms: _361  and  _362
REMARK  154  A    between atoms: _365  and  _367
REMARK  155  A    between atoms: _367  and  _368
REMARK  156  A    between atoms: _371  and  _373
REMARK  157  A    between atoms: _373  and  _374
REMARK  158  A    between atoms: _373  and  _376
REMARK  159  A    between atoms: _376  and  _377
REMARK  160  A    between atoms: _377  and  _500
REMARK  161  A    between atoms: _378  and  _380
REMARK  162  A    between atoms: _380  and  _381
REMARK  163  A    between atoms: _380  and  _383
REMARK  164  A    between atoms: _383  and  _384
REMARK  165  A    between atoms: _384  and  _385
REMARK  166  A    between atoms: _390  and  _392
REMARK  167  A    between atoms: _392  and  _393
REMARK  168  A    between atoms: _395  and  _397
REMARK  169  A    between atoms: _397  and  _398
REMARK  170  A    between atoms: _397  and  _400
REMARK  171  A    between atoms: _400  and  _401
REMARK  172  A    between atoms: _404  and  _406
REMARK  173  A    between atoms: _406  and  _407
REMARK  174  A    between atoms: _406  and  _409
REMARK  175  A    between atoms: _409  and  _410
REMARK  176  A    between atoms: _412  and  _414
REMARK  177  A    between atoms: _414  and  _415
REMARK  178  A    between atoms: _417  and  _419
REMARK  179  A    between atoms: _419  and  _420
REMARK  180  A    between atoms: _422  and  _424
REMARK  181  A    between atoms: _424  and  _425
REMARK  182  A    between atoms: _424  and  _427
REMARK  183  A    between atoms: _427  and  _428
REMARK  184  A    between atoms: _433  and  _435
REMARK  185  A    between atoms: _435  and  _436
REMARK  186  A    between atoms: _435  and  _438
REMARK  187  A    between atoms: _438  and  _439
REMARK  188  A    between atoms: _442  and  _444
REMARK  189  A    between atoms: _444  and  _445
REMARK  190  A    between atoms: _444  and  _447
REMARK  191  A    between atoms: _450  and  _452
REMARK  192  A    between atoms: _452  and  _453
REMARK  193  A    between atoms: _452  and  _455
REMARK  194  A    between atoms: _455  and  _456
REMARK  195  A    between atoms: _458  and  _460
REMARK  196  A    between atoms: _460  and  _461
REMARK  197  A    between atoms: _460  and  _463
REMARK  198  A    between atoms: _463  and  _464
REMARK  199  A    between atoms: _474  and  _476
REMARK  200  A    between atoms: _476  and  _477
REMARK  201  A    between atoms: _479  and  _481
REMARK  202  A    between atoms: _481  and  _482
REMARK  203  A    between atoms: _481  and  _484
REMARK  204  A    between atoms: _484  and  _485
REMARK  205  A    between atoms: _485  and  _486
REMARK  206  A    between atoms: _489  and  _491
REMARK  207  A    between atoms: _491  and  _492
REMARK  208  A    between atoms: _494  and  _496
REMARK  209  A    between atoms: _496  and  _497
REMARK  210  A    between atoms: _496  and  _499
REMARK  211  A    between atoms: _499  and  _500
REMARK  212  A    between atoms: _501  and  _503
REMARK  213  A    between atoms: _503  and  _504
REMARK  214  A    between atoms: _507  and  _509
REMARK  215  A    between atoms: _509  and  _510
REMARK  216  A    between atoms: _509  and  _512
REMARK  217  A    between atoms: _512  and  _513
REMARK  218  A    between atoms: _513  and  _514
REMARK  219  A    between atoms: _514  and  _515
REMARK  220  A    between atoms: _524  and  _526
REMARK  221  A    between atoms: _526  and  _527
REMARK  222  A    between atoms: _526  and  _529
REMARK  223  A    between atoms: _529  and  _530
REMARK  224  A    between atoms: _530  and  _531
REMARK  225  A    between atoms: _531  and  _532
REMARK  226  A    between atoms: _532  and  _533
REMARK  227  A    between atoms: _537  and  _539
REMARK  228  A    between atoms: _539  and  _540
REMARK  229  A    between atoms: _539  and  _542
REMARK  230  A    between atoms: _542  and  _543
REMARK  231  A    between atoms: _548  and  _549
REMARK  232  A    between atoms: _551  and  _553
REMARK  233  A    between atoms: _553  and  _554
REMARK  234  A    between atoms: _556  and  _558
REMARK  235  A    between atoms: _558  and  _559
REMARK  236  A    between atoms: _558  and  _561
REMARK  237  A    between atoms: _561  and  _562
REMARK  238  A    between atoms: _565  and  _567
REMARK  239  A    between atoms: _567  and  _568
REMARK  240  A    between atoms: _567  and  _570
REMARK  241  A    between atoms: _570  and  _571
REMARK  242  A    between atoms: _576  and  _577
REMARK                            x       y       z     vdW  Elec       q    Type
REMARK                         _______ _______ _______ _____ _____    ______ ____
ROOT
ATOM      1  CB  ARG A   2       5.033  21.660  49.869  0.00  0.00    +0.031 C 
ENDROOT
BRANCH   1   2
ATOM      2  CA  ARG A   2       5.874  20.507  49.324  0.00  0.00    +0.137 C 
BRANCH   2   4
ATOM      3  C   GLY A   1       7.986  19.404  49.959  0.00  0.00    +0.240 C 
ATOM      4  N   ARG A   2       6.948  20.185  50.265  0.00  0.00    -0.298 N 
ATOM      5  H   ARG A   2       6.900  20.586  51.223  0.00  0.00    +0.150 HD
ATOM      6  O   GLY A   1       8.134  18.879  48.853  0.00  0.00    -0.274 OA
BRANCH   3   7
ATOM      7  CA  GLY A   1       8.998  19.185  51.076  0.00  0.00    +0.169 C 
BRANCH   7   8
ATOM      8  N   GLY A   1      10.121  18.317  50.765  0.00  0.00    -0.236 NA
ATOM      9  H   GLY A   1      11.084  18.710  50.747  0.00  0.00    +0.142 HD
ENDBRANCH   7   8
ENDBRANCH   3   7
ENDBRANCH   2   4
BRANCH   2  10
ATOM     10  C   ARG A   2       6.406  20.897  47.959  0.00  0.00    +0.227 C 
ATOM     11  O   ARG A   2       7.480  21.479  47.856  0.00  0.00    -0.286 OA
ENDBRANCH   2  10
ENDBRANCH   1   2
BRANCH   1  12
ATOM     12  CG  ARG A   2       4.164  21.313  51.065  0.00  0.00    +0.045 C 
BRANCH  12  13
ATOM     13  CD  ARG A   2       3.678  22.581  51.740  0.00  0.00    +0.174 C 
BRANCH  13  14
ATOM     14  NE  ARG A   2       2.540  22.384  52.638  0.00  0.00    -0.265 N 
ATOM     15  CZ  ARG A   2       2.488  21.494  53.625  0.00  0.00    +0.342 C 
ATOM     16  NH2 ARG A   2       1.407  21.432  54.389  0.00  0.00    -0.292 N 
ATOM     17 HH21 ARG A   2       1.357  20.740  55.163  0.00  0.00    +0.255 HD
ATOM     18 HH22 ARG A   2       0.609  22.076  54.214  0.00  0.00    +0.255 HD
ATOM     19  NH1 ARG A   2       3.511  20.680  53.869  0.00  0.00    -0.292 N 
ATOM     20 HH11 ARG A   2       3.453  19.990  54.645  0.00  0.00    +0.255 HD
ATOM     21 HH12 ARG A   2       4.369  20.733  53.284  0.00  0.00    +0.255 HD
ATOM     22  HE  ARG A   2       1.706  22.988  52.493  0.00  0.00    +0.259 HD
ENDBRANCH  13  14
ENDBRANCH  12  13
ENDBRANCH   1  12
TORSDOF 8
REMARK  Name = ../refined-set-2016/1z6e/1z6e_pocket.pdb
REMARK  242 active torsions:
REMARK  status: ('A' for Active; 'I' for Inactive)
REMARK    1  A    between atoms: _1  and  _5
REMARK    2  A    between atoms: _5  and  _6
REMARK    3  A    between atoms: _5  and  _8
REMARK    4  A    between atoms: _8  and  _9
REMARK    5  A    between atoms: _12  and  _14
REMARK    6  A    between atoms: _14  and  _15
REMARK    7  A    between atoms: _14  and  _17
REMARK    8  A    between atoms: _20  and  _22
REMARK    9  A    between atoms: _22  and  _23
REMARK   10  A    between atoms: _22  and  _25
REMARK   11  A    between atoms: _25  and  _26
REMARK   12  A    between atoms: _31  and  _33
REMARK   13  A    between atoms: _33  and  _34
REMARK   14  A    between atoms: _33  and  _36
REMARK   15  A    between atoms: _38  and  _40
REMARK   16  A    between atoms: _40  and  _41
REMARK   17  A    between atoms: _40  and  _43
REMARK   18  A    between atoms: _43  and  _44
REMARK   19  A    between atoms: _44  and  _45
REMARK   20  A    between atoms: _50  and  _52
REMARK   21  A    between atoms: _52  and  _53
REMARK   22  A    between atoms: _52  and  _55
REMARK   23  A    between atoms: _55  and  _56
REMARK   24  A    between atoms: _62  and  _64
REMARK   25  A    between atoms: _64  and  _65
REMARK   26  A    between atoms: _64  and  _67
REMARK   27  A    between atoms: _67  and  _68
REMARK   28  A    between atoms: _71  and  _73
REMARK   29  A    between atoms: _73  and  _74
REMARK   30  A    between atoms: _73  and  _76
REMARK   31  A    between atoms: _76  and  _77
REMARK   32  A    between atoms: _77  and  _78
REMARK   33  A    between atoms: _78  and  _79
REMARK   34  A    between atoms: _79  and  _80
REMARK   35  A    between atoms: _84  and  _86
REMARK   36  A    between atoms: _86  and  _87
REMARK   37  A    between atoms: _86  and  _89
REMARK   38  A    between atoms: _89  and  _90
REMARK   39  A    between atoms: _90  and  _91
REMARK   40  A    between atoms: _94  and  _96
REMARK   41  A    between atoms: _96  and  _97
REMARK   42  A    between atoms: _96  and  _99
REMARK   43  A    between atoms: _99  and  _100
REMARK   44  A    between atoms: _103  and  _105
REMARK   45  A    between atoms: _105  and  _106
REMARK   46  A    between atoms: _105  and  _108
REMARK   47  A    between atoms: _108  and  _109
REMARK   48  A    between atoms: _114  and  _115
REMARK   49  A    between atoms: _117  and  _119
REMARK   50  A    between atoms: _119  and  _120
REMARK   51  A    between atoms: _119  and  _122
REMARK   52  A    between atoms: _122  and  _123
REMARK   53  A    between atoms: _126  and  _128
REMARK   54  A    between atoms: _128  and  _129
REMARK   55  A    between atoms: _128  and  _131
REMARK   56  A    between atoms: _131  and  _132
REMARK   57  A    between atoms: _135  and  _137
REMARK   58  A    between atoms: _137  and  _138
REMARK   59  A    between atoms: _137  and  _140
REMARK   60  A    between atoms: _143  and  _145
REMARK   61  A    between atoms: _145  and  _146
REMARK   62  A    between atoms: _148  and  _150
REMARK   63  A    between atoms: _150  and  _151
REMARK   64  A    between atoms: _150  and  _153
REMARK   65  A    between atoms: _153  and  _154
REMARK   66  A    between atoms: _154  and  _155
REMARK   67  A    between atoms: _155  and  _156
REMARK   68  A    between atoms: _165  and  _167
REMARK   69  A    between atoms: _167  and  _168
REMARK   70  A    between atoms: _167  and  _170
REMARK   71  A    between atoms: _170  and  _171
REMARK   72  A    between atoms: _176  and  _178
REMARK   73  A    between atoms: _178  and  _179
REMARK   74  A    between atoms: _178  and  _181
REMARK   75  A    between atoms: _181  and  _182
REMARK   76  A    between atoms: _182  and  _183
REMARK   77  A    between atoms: _186  and  _188
REMARK   78  A    between atoms: _188  and  _189
REMARK   79  A    between atoms: _188  and  _191
REMARK   80  A    between atoms: _191  and  _192
REMARK   81  A    between atoms: _192  and  _193
REMARK   82  A    between atoms: _193  and  _194
REMARK   83  A    between atoms: _194  and  _195
REMARK   84  A    between atoms: _199  and  _201
REMARK   85  A    between atoms: _201  and  _202
REMARK   86  A    between atoms: _204  and  _206
REMARK   87  A    between atoms: _206  and  _207
REMARK   88  A    between atoms: _206  and  _209
REMARK   89  A    between atoms: _209  and  _210
REMARK   90  A    between atoms: _210  and  _211
REMARK   91  A    between atoms: _211  and  _212
REMARK   92  A    between atoms: _221  and  _223
REMARK   93  A    between atoms: _223  and  _224
REMARK   94  A    between atoms: _223  and  _226
REMARK   95  A    between atoms: _226  and  _227
REMARK   96  A    between atoms: _227  and  _228
REMARK   97  A    between atoms: _233  and  _235
REMARK   98  A    between atoms: _235  and  _236
REMARK   99  A    between atoms: _235  and  _238
REMARK  100  A    between atoms: _238  and  _239
REMARK  101  A    between atoms: _242  and  _244
REMARK  102  A    between atoms: _244  and  _245
REMARK  103  A    between atoms: _244  and  _247
REMARK  104  A    between atoms: _250  and  _252
REMARK  105  A    between atoms: _252  and  _253
REMARK  106  A    between atoms: _252  and  _255
REMARK  107  A    between atoms: _255  and  _256
REMARK  108  A    between atoms: _258  and  _260
REMARK  109  A    between atoms: _260  and  _261
REMARK  110  A    between atoms: _260  and  _263
REMARK  111  A    between atoms: _263  and  _264
REMARK  112  A    between atoms: _266  and  _268
REMARK  113  A    between atoms: _268  and  _269
REMARK  114  A    between atoms: _268  and  _271
REMARK  115  A    between atoms: _271  and  _272
REMARK  116  A    between atoms: _278  and  _280
REMARK  117  A    between atoms: _280  and  _281
REMARK  118  A    between atoms: _280  and  _283
REMARK  119  A    between atoms: _283  and  _284
REMARK  120  A    between atoms: _287  and  _289
REMARK  121  A    between atoms: _289  and  _290
REMARK  122  A    between atoms: _289  and  _292
REMARK  123  A    between atoms: _292  and  _293
REMARK  124  A    between atoms: _296  and  _298
REMARK  125  A    between atoms: _298  and  _299
REMARK  126  A    between atoms: _298  and  _301
REMARK  127  A    between atoms: _301  and  _302
REMARK  128  A    between atoms: _305  and  _307
REMARK  129  A    between atoms: _307  and  _308
REMARK  130  A    between atoms: _307  and  _310
REMARK  131  A    between atoms: _310  and  _311
REMARK  132  A    between atoms: _311  and  _312
REMARK  133  A    between atoms: _314  and  _316
REMARK  134  A    between atoms: _316  and  _317
REMARK  135  A    between atoms: _316  and  _319
REMARK  136  A    between atoms: _321  and  _323
REMARK  137  A    between atoms: _323  and  _324
REMARK  138  A    between atoms: _327  and  _329
REMARK  139  A    between atoms: _329  and  _330
REMARK  140  A    between atoms: _332  and  _334
REMARK  141  A    between atoms: _334  and  _335
REMARK  142  A    between atoms: _334  and  _337
REMARK  143  A    between atoms: _337  and  _338
REMARK  144  A    between atoms: _343  and  _344
REMARK  145  A    between atoms: _346  and  _348
REMARK  146  A    between atoms: _348  and  _349
REMARK  147  A    between atoms: _348  and  _351
REMARK  148  A    between atoms: _351  and  _352
REMARK  149  A    between atoms: _352  and  _353
REMARK  150  A    between atoms: _356  and  _358
REMARK  151  A    between atoms: _358  and  _359
REMARK  152  A    between atoms: _358  and  _361
REMARK  153  A    between atoms: _361  and  _362
REMARK  154  A    between atoms: _365  and  _367
REMARK  155  A    between atoms: _367  and  _368
REMARK  156  A    between atoms: _371  and  _373
REMARK  157  A    between atoms: _373  and  _374
REMARK  158  A    between atoms: _373  and  _376
REMARK  159  A    between atoms: _376  and  _377
REMARK  160  A    between atoms: _377  and  _500
REMARK  161  A    between atoms: _378  and  _380
REMARK  162  A    between atoms: _380  and  _381
REMARK  163  A    between atoms: _380  and  _383
REMARK  164  A    between atoms: _383  and  _384
REMARK  165  A    between atoms: _384  and  _385
REMARK  166  A    between atoms: _390  and  _392
REMARK  167  A    between atoms: _392  and  _393
REMARK  168  A    between atoms: _395  and  _397
REMARK  169  A    between atoms: _397  and  _398
REMARK  170  A    between atoms: _397  and  _400
REMARK  171  A    between atoms: _400  and  _401
REMARK  172  A    between atoms: _404  and  _406
REMARK  173  A    between atoms: _406  and  _407
REMARK  174  A    between atoms: _406  and  _409
REMARK  175  A    between atoms: _409  and  _410
REMARK  176  A    between atoms: _412  and  _414
REMARK  177  A    between atoms: _414  and  _415
REMARK  178  A    between atoms: _417  and  _419
REMARK  179  A    between atoms: _419  and  _420
REMARK  180  A    between atoms: _422  and  _424
REMARK  181  A    between atoms: _424  and  _425
REMARK  182  A    between atoms: _424  and  _427
REMARK  183  A    between atoms: _427  and  _428
REMARK  184  A    between atoms: _433  and  _435
REMARK  185  A    between atoms: _435  and  _436
REMARK  186  A    between atoms: _435  and  _438
REMARK  187  A    between atoms: _438  and  _439
REMARK  188  A    between atoms: _442  and  _444
REMARK  189  A    between atoms: _444  and  _445
REMARK  190  A    between atoms: _444  and  _447
REMARK  191  A    between atoms: _450  and  _452
REMARK  192  A    between atoms: _452  and  _453
REMARK  193  A    between atoms: _452  and  _455
REMARK  194  A    between atoms: _455  and  _456
REMARK  195  A    between atoms: _458  and  _460
REMARK  196  A    between atoms: _460  and  _461
REMARK  197  A    between atoms: _460  and  _463
REMARK  198  A    between atoms: _463  and  _464
REMARK  199  A    between atoms: _474  and  _476
REMARK  200  A    between atoms: _476  and  _477
REMARK  201  A    between atoms: _479  and  _481
REMARK  202  A    between atoms: _481  and  _482
REMARK  203  A    between atoms: _481  and  _484
REMARK  204  A    between atoms: _484  and  _485
REMARK  205  A    between atoms: _485  and  _486
REMARK  206  A    between atoms: _489  and  _491
REMARK  207  A    between atoms: _491  and  _492
REMARK  208  A    between atoms: _494  and  _496
REMARK  209  A    between atoms: _496  and  _497
REMARK  210  A    between atoms: _496  and  _499
REMARK  211  A    between atoms: _499  and  _500
REMARK  212  A    between atoms: _501  and  _503
REMARK  213  A    between atoms: _503  and  _504
REMARK  214  A    between atoms: _507  and  _509
REMARK  215  A    between atoms: _509  and  _510
REMARK  216  A    between atoms: _509  and  _512
REMARK  217  A    between atoms: _512  and  _513
REMARK  218  A    between atoms: _513  and  _514
REMARK  219  A    between atoms: _514  and  _515
REMARK  220  A    between atoms: _524  and  _526
REMARK  221  A    between atoms: _526  and  _527
REMARK  222  A    between atoms: _526  and  _529
REMARK  223  A    between atoms: _529  and  _530
REMARK  224  A    between atoms: _530  and  _531
REMARK  225  A    between atoms: _531  and  _532
REMARK  226  A    between atoms: _532  and  _533
REMARK  227  A    between atoms: _537  and  _539
REMARK  228  A    between atoms: _539  and  _540
REMARK  229  A    between atoms: _539  and  _542
REMARK  230  A    between atoms: _542  and  _543
REMARK  231  A    between atoms: _548  and  _549
REMARK  232  A    between atoms: _551  and  _553
REMARK  233  A    between atoms: _553  and  _554
REMARK  234  A    between atoms: _556  and  _558
REMARK  235  A    between atoms: _558  and  _559
REMARK  236  A    between atoms: _558  and  _561
REMARK  237  A    between atoms: _561  and  _562
REMARK  238  A    between atoms: _565  and  _567
REMARK  239  A    between atoms: _567  and  _568
REMARK  240  A    between atoms: _567  and  _570
REMARK  241  A    between atoms: _570  and  _571
REMARK  242  A    between atoms: _576  and  _577
REMARK                            x       y       z     vdW  Elec       q    Type
REMARK                         _______ _______ _______ _____ _____    ______ ____
ROOT
ATOM      1  C   LYS A   3      -1.106  22.856  48.707  0.00  0.00    +0.241 C 
ATOM      2  O   LYS A   3      -2.201  22.297  48.801  0.00  0.00    -0.273 OA
ATOM      3  N   GLY A   4       0.026  22.201  48.467  0.00  0.00    -0.295 N 
ATOM      4  H   GLY A   4       0.929  22.716  48.453  0.00  0.00    +0.150 HD
ENDROOT
BRANCH   1   5
ATOM      5  CA  LYS A   3      -0.996  24.361  48.908  0.00  0.00    +0.149 C 
BRANCH   5   8
ATOM      6  C   GLU A   2       1.204  25.307  49.176  0.00  0.00    +0.241 C 
ATOM      7  O   GLU A   2       1.201  25.029  50.387  0.00  0.00    -0.273 OA
ATOM      8  N   LYS A   3       0.197  25.007  48.366  0.00  0.00    -0.297 N 
ATOM      9  H   LYS A   3       0.256  25.230  47.352  0.00  0.00    +0.150 HD
BRANCH   6  10
ATOM     10  CA  GLU A   2       2.390  26.004  48.541  0.00  0.00    +0.149 C 
BRANCH  10  13
ATOM     11  C   HIS A   1       3.059  24.173  47.094  0.00  0.00    +0.239 C 
ATOM     12  O   HIS A   1       3.020  23.374  48.029  0.00  0.00    -0.274 OA
ATOM     13  N   GLU A   2       2.768  25.464  47.239  0.00  0.00    -0.297 N 
ATOM     14  H   GLU A   2       2.811  26.096  46.414  0.00  0.00    +0.150 HD
BRANCH  11  15
ATOM     15  CA  HIS A   1       3.497  23.706  45.715  0.00  0.00    +0.151 C 
BRANCH  15  16
ATOM     16  N   HIS A   1       4.353  22.561  45.963  0.00  0.00    -0.238 NA
ATOM     17  H   HIS A   1       4.276  22.075  46.879  0.00  0.00    +0.142 HD
ENDBRANCH  15  16
BRANCH  15  18
ATOM     18  CB  HIS A   1       2.306  23.353  44.781  0.00  0.00    +0.074 C 
BRANCH  18  19
ATOM     19  CG  HIS A   1       1.740  21.972  44.963  0.00  0.00    +0.082 A 
ATOM     20  ND1 HIS A   1       2.474  20.904  45.436  0.00  0.00    -0.227 NA
ATOM     21  CE1 HIS A   1       1.724  19.814  45.436  0.00  0.00    +0.199 A 
ATOM     22  NE2 HIS A   1       0.527  20.135  44.979  0.00  0.00    -0.221 NA
ATOM     23  CD2 HIS A   1       0.511  21.477  44.679  0.00  0.00    +0.115 A 
ENDBRANCH  18  19
ENDBRANCH  15  18
ENDBRANCH  11  15
ENDBRANCH  10  13
BRANCH  10  24
ATOM     24  CB  GLU A   2       2.096  27.502  48.437  0.00  0.00    +0.041 C 
BRANCH  24  25
ATOM     25  CG  GLU A   2       2.142  28.208  49.781  0.00  0.00    +0.116 C 
BRANCH  25  26
ATOM     26  CD  GLU A   2       1.846  29.691  49.679  0.00  0.00    +0.365 C 
ATOM     27  OE2 GLU A   2       1.003  30.187  50.463  0.00  0.00    -0.246 OA
ATOM     28  OE1 GLU A   2       2.459  30.363  48.820  0.00  0.00    -0.246 OA
ENDBRANCH  25  26
ENDBRANCH  24  25
ENDBRANCH  10  24
ENDBRANCH   6  10
ENDBRANCH   5   8
BRANCH   5  29
ATOM     29  CB  LYS A   3      -2.238  25.021  48.335  0.00  0.00    +0.029 C 
BRANCH  29  30
ATOM     30  CG  LYS A   3      -2.499  26.378  48.953  0.00  0.00    +0.000 C 
BRANCH  30  31
ATOM     31  CD  LYS A   3      -3.722  27.042  48.346  0.00  0.00    -0.024 C 
BRANCH  31  32
ATOM     32  CE  LYS A   3      -4.128  28.243  49.202  0.00  0.00    -0.086 C 
BRANCH  32  33
ATOM     33  NZ  LYS A   3      -3.081  29.314  49.296  0.00  0.00    +0.380 N 
ATOM     34  HZ1 LYS A   3      -3.433  30.090  49.892  0.00  0.00    -0.089 HD
ATOM     35  HZ2 LYS A   3      -2.217  28.917  49.717  0.00  0.00    -0.089 HD
ATOM     36  HZ3 LYS A   3      -2.870  29.675  48.344  0.00  0.00    -0.089 HD
ENDBRANCH  32  33
ENDBRANCH  31  32
ENDBRANCH  30  31
ENDBRANCH  29  30
ENDBRANCH   5  29
ENDBRANCH   1   5
BRANCH   3  37
ATOM     37  CA  GLY A   4       0.007  20.771  48.224  0.00  0.00    +0.176 C 
BRANCH  37  38
ATOM     38  C   GLY A   4       0.742  19.857  49.206  0.00  0.00    +0.243 C 
ATOM     39  O   GLY A   4       1.155  20.252  50.308  0.00  0.00    -0.273 OA
ATOM     40  N   ARG A   5       0.934  18.615  48.769  0.00  0.00    -0.297 N 
ATOM     41  H   ARG A   5       0.604  18.363  47.815  0.00  0.00    +0.150 HD
BRANCH  40  42
ATOM     42  CA  ARG A   5       1.588  17.598  49.576  0.00  0.00    +0.149 C 
BRANCH  42  43
ATOM     43  C   ARG A   5       3.090  17.529  49.377  0.00  0.00    +0.241 C 
ATOM     44  N   GLN A   6       3.716  16.931  50.382  0.00  0.00    -0.298 N 
ATOM     45  H   GLN A   6       3.144  16.593  51.182  0.00  0.00    +0.150 HD
ATOM     46  O   ARG A   5       3.650  18.031  48.391  0.00  0.00    -0.273 OA
BRANCH  44  47
ATOM     47  CA  GLN A   6       5.147  16.721  50.431  0.00  0.00    +0.137 C 
BRANCH  47  48
ATOM     48  C   GLN A   6       5.459  15.722  49.334  0.00  0.00    +0.227 C 
ATOM     49  O   GLN A   6       4.654  14.827  49.061  0.00  0.00    -0.286 OA
ENDBRANCH  47  48
BRANCH  47  50
ATOM     50  CB  GLN A   6       5.538  16.126  51.782  0.00  0.00    +0.037 C 
BRANCH  50  51
ATOM     51  CG  GLN A   6       5.027  16.933  52.955  0.00  0.00    +0.087 C 
BRANCH  51  52
ATOM     52  CD  GLN A   6       6.074  17.870  53.517  0.00  0.00    +0.219 C 
ATOM     53  OE1 GLN A   6       5.748  18.867  54.170  0.00  0.00    -0.275 OA
ATOM     54  NE2 GLN A   6       7.344  17.545  53.285  0.00  0.00    -0.329 N 
ATOM     55 HE21 GLN A   6       8.110  18.141  53.659  0.00  0.00    +0.145 HD
ATOM     56 HE22 GLN A   6       7.570  16.695  52.729  0.00  0.00    +0.145 HD
ENDBRANCH  51  52
ENDBRANCH  50  51
ENDBRANCH  47  50
ENDBRANCH  44  47
ENDBRANCH  42  43
BRANCH  42  57
ATOM     57  CB  ARG A   5       0.938  16.247  49.283  0.00  0.00    +0.033 C 
BRANCH  57  58
ATOM     58  CG  ARG A   5      -0.472  16.126  49.847  0.00  0.00    +0.045 C 
BRANCH  58  59
ATOM     59  CD  ARG A   5      -0.448  15.941  51.361  0.00  0.00    +0.174 C 
BRANCH  59  60
ATOM     60  NE  ARG A   5       0.090  17.088  52.092  0.00  0.00    -0.265 N 
ATOM     61  CZ  ARG A   5       0.215  17.136  53.417  0.00  0.00    +0.342 C 
ATOM     62  NH2 ARG A   5      -0.158  16.103  54.163  0.00  0.00    -0.292 N 
ATOM     63 HH21 ARG A   5      -0.058  16.146  55.197  0.00  0.00    +0.255 HD
ATOM     64 HH22 ARG A   5      -0.550  15.251  53.713  0.00  0.00    +0.255 HD
ATOM     65  NH1 ARG A   5       0.716  18.217  54.000  0.00  0.00    -0.292 N 
ATOM     66 HH11 ARG A   5       0.813  18.252  55.035  0.00  0.00    +0.255 HD
ATOM     67 HH12 ARG A   5       1.012  19.029  53.422  0.00  0.00    +0.255 HD
ATOM     68  HE  ARG A   5       0.394  17.917  51.543  0.00  0.00    +0.259 HD
ENDBRANCH  59  60
ENDBRANCH  58  59
ENDBRANCH  57  58
ENDBRANCH  42  57
ENDBRANCH  40  42
ENDBRANCH  37  38
ENDBRANCH   3  37
TORSDOF 29
REMARK  Name = ../refined-set-2016/1z6e/1z6e_pocket.pdb
REMARK  242 active torsions:
REMARK  status: ('A' for Active; 'I' for Inactive)
REMARK    1  A    between atoms: _1  and  _5
REMARK    2  A    between atoms: _5  and  _6
REMARK    3  A    between atoms: _5  and  _8
REMARK    4  A    between atoms: _8  and  _9
REMARK    5  A    between atoms: _12  and  _14
REMARK    6  A    between atoms: _14  and  _15
REMARK    7  A    between atoms: _14  and  _17
REMARK    8  A    between atoms: _20  and  _22
REMARK    9  A    between atoms: _22  and  _23
REMARK   10  A    between atoms: _22  and  _25
REMARK   11  A    between atoms: _25  and  _26
REMARK   12  A    between atoms: _31  and  _33
REMARK   13  A    between atoms: _33  and  _34
REMARK   14  A    between atoms: _33  and  _36
REMARK   15  A    between atoms: _38  and  _40
REMARK   16  A    between atoms: _40  and  _41
REMARK   17  A    between atoms: _40  and  _43
REMARK   18  A    between atoms: _43  and  _44
REMARK   19  A    between atoms: _44  and  _45
REMARK   20  A    between atoms: _50  and  _52
REMARK   21  A    between atoms: _52  and  _53
REMARK   22  A    between atoms: _52  and  _55
REMARK   23  A    between atoms: _55  and  _56
REMARK   24  A    between atoms: _62  and  _64
REMARK   25  A    between atoms: _64  and  _65
REMARK   26  A    between atoms: _64  and  _67
REMARK   27  A    between atoms: _67  and  _68
REMARK   28  A    between atoms: _71  and  _73
REMARK   29  A    between atoms: _73  and  _74
REMARK   30  A    between atoms: _73  and  _76
REMARK   31  A    between atoms: _76  and  _77
REMARK   32  A    between atoms: _77  and  _78
REMARK   33  A    between atoms: _78  and  _79
REMARK   34  A    between atoms: _79  and  _80
REMARK   35  A    between atoms: _84  and  _86
REMARK   36  A    between atoms: _86  and  _87
REMARK   37  A    between atoms: _86  and  _89
REMARK   38  A    between atoms: _89  and  _90
REMARK   39  A    between atoms: _90  and  _91
REMARK   40  A    between atoms: _94  and  _96
REMARK   41  A    between atoms: _96  and  _97
REMARK   42  A    between atoms: _96  and  _99
REMARK   43  A    between atoms: _99  and  _100
REMARK   44  A    between atoms: _103  and  _105
REMARK   45  A    between atoms: _105  and  _106
REMARK   46  A    between atoms: _105  and  _108
REMARK   47  A    between atoms: _108  and  _109
REMARK   48  A    between atoms: _114  and  _115
REMARK   49  A    between atoms: _117  and  _119
REMARK   50  A    between atoms: _119  and  _120
REMARK   51  A    between atoms: _119  and  _122
REMARK   52  A    between atoms: _122  and  _123
REMARK   53  A    between atoms: _126  and  _128
REMARK   54  A    between atoms: _128  and  _129
REMARK   55  A    between atoms: _128  and  _131
REMARK   56  A    between atoms: _131  and  _132
REMARK   57  A    between atoms: _135  and  _137
REMARK   58  A    between atoms: _137  and  _138
REMARK   59  A    between atoms: _137  and  _140
REMARK   60  A    between atoms: _143  and  _145
REMARK   61  A    between atoms: _145  and  _146
REMARK   62  A    between atoms: _148  and  _150
REMARK   63  A    between atoms: _150  and  _151
REMARK   64  A    between atoms: _150  and  _153
REMARK   65  A    between atoms: _153  and  _154
REMARK   66  A    between atoms: _154  and  _155
REMARK   67  A    between atoms: _155  and  _156
REMARK   68  A    between atoms: _165  and  _167
REMARK   69  A    between atoms: _167  and  _168
REMARK   70  A    between atoms: _167  and  _170
REMARK   71  A    between atoms: _170  and  _171
REMARK   72  A    between atoms: _176  and  _178
REMARK   73  A    between atoms: _178  and  _179
REMARK   74  A    between atoms: _178  and  _181
REMARK   75  A    between atoms: _181  and  _182
REMARK   76  A    between atoms: _182  and  _183
REMARK   77  A    between atoms: _186  and  _188
REMARK   78  A    between atoms: _188  and  _189
REMARK   79  A    between atoms: _188  and  _191
REMARK   80  A    between atoms: _191  and  _192
REMARK   81  A    between atoms: _192  and  _193
REMARK   82  A    between atoms: _193  and  _194
REMARK   83  A    between atoms: _194  and  _195
REMARK   84  A    between atoms: _199  and  _201
REMARK   85  A    between atoms: _201  and  _202
REMARK   86  A    between atoms: _204  and  _206
REMARK   87  A    between atoms: _206  and  _207
REMARK   88  A    between atoms: _206  and  _209
REMARK   89  A    between atoms: _209  and  _210
REMARK   90  A    between atoms: _210  and  _211
REMARK   91  A    between atoms: _211  and  _212
REMARK   92  A    between atoms: _221  and  _223
REMARK   93  A    between atoms: _223  and  _224
REMARK   94  A    between atoms: _223  and  _226
REMARK   95  A    between atoms: _226  and  _227
REMARK   96  A    between atoms: _227  and  _228
REMARK   97  A    between atoms: _233  and  _235
REMARK   98  A    between atoms: _235  and  _236
REMARK   99  A    between atoms: _235  and  _238
REMARK  100  A    between atoms: _238  and  _239
REMARK  101  A    between atoms: _242  and  _244
REMARK  102  A    between atoms: _244  and  _245
REMARK  103  A    between atoms: _244  and  _247
REMARK  104  A    between atoms: _250  and  _252
REMARK  105  A    between atoms: _252  and  _253
REMARK  106  A    between atoms: _252  and  _255
REMARK  107  A    between atoms: _255  and  _256
REMARK  108  A    between atoms: _258  and  _260
REMARK  109  A    between atoms: _260  and  _261
REMARK  110  A    between atoms: _260  and  _263
REMARK  111  A    between atoms: _263  and  _264
REMARK  112  A    between atoms: _266  and  _268
REMARK  113  A    between atoms: _268  and  _269
REMARK  114  A    between atoms: _268  and  _271
REMARK  115  A    between atoms: _271  and  _272
REMARK  116  A    between atoms: _278  and  _280
REMARK  117  A    between atoms: _280  and  _281
REMARK  118  A    between atoms: _280  and  _283
REMARK  119  A    between atoms: _283  and  _284
REMARK  120  A    between atoms: _287  and  _289
REMARK  121  A    between atoms: _289  and  _290
REMARK  122  A    between atoms: _289  and  _292
REMARK  123  A    between atoms: _292  and  _293
REMARK  124  A    between atoms: _296  and  _298
REMARK  125  A    between atoms: _298  and  _299
REMARK  126  A    between atoms: _298  and  _301
REMARK  127  A    between atoms: _301  and  _302
REMARK  128  A    between atoms: _305  and  _307
REMARK  129  A    between atoms: _307  and  _308
REMARK  130  A    between atoms: _307  and  _310
REMARK  131  A    between atoms: _310  and  _311
REMARK  132  A    between atoms: _311  and  _312
REMARK  133  A    between atoms: _314  and  _316
REMARK  134  A    between atoms: _316  and  _317
REMARK  135  A    between atoms: _316  and  _319
REMARK  136  A    between atoms: _321  and  _323
REMARK  137  A    between atoms: _323  and  _324
REMARK  138  A    between atoms: _327  and  _329
REMARK  139  A    between atoms: _329  and  _330
REMARK  140  A    between atoms: _332  and  _334
REMARK  141  A    between atoms: _334  and  _335
REMARK  142  A    between atoms: _334  and  _337
REMARK  143  A    between atoms: _337  and  _338
REMARK  144  A    between atoms: _343  and  _344
REMARK  145  A    between atoms: _346  and  _348
REMARK  146  A    between atoms: _348  and  _349
REMARK  147  A    between atoms: _348  and  _351
REMARK  148  A    between atoms: _351  and  _352
REMARK  149  A    between atoms: _352  and  _353
REMARK  150  A    between atoms: _356  and  _358
REMARK  151  A    between atoms: _358  and  _359
REMARK  152  A    between atoms: _358  and  _361
REMARK  153  A    between atoms: _361  and  _362
REMARK  154  A    between atoms: _365  and  _367
REMARK  155  A    between atoms: _367  and  _368
REMARK  156  A    between atoms: _371  and  _373
REMARK  157  A    between atoms: _373  and  _374
REMARK  158  A    between atoms: _373  and  _376
REMARK  159  A    between atoms: _376  and  _377
REMARK  160  A    between atoms: _377  and  _500
REMARK  161  A    between atoms: _378  and  _380
REMARK  162  A    between atoms: _380  and  _381
REMARK  163  A    between atoms: _380  and  _383
REMARK  164  A    between atoms: _383  and  _384
REMARK  165  A    between atoms: _384  and  _385
REMARK  166  A    between atoms: _390  and  _392
REMARK  167  A    between atoms: _392  and  _393
REMARK  168  A    between atoms: _395  and  _397
REMARK  169  A    between atoms: _397  and  _398
REMARK  170  A    between atoms: _397  and  _400
REMARK  171  A    between atoms: _400  and  _401
REMARK  172  A    between atoms: _404  and  _406
REMARK  173  A    between atoms: _406  and  _407
REMARK  174  A    between atoms: _406  and  _409
REMARK  175  A    between atoms: _409  and  _410
REMARK  176  A    between atoms: _412  and  _414
REMARK  177  A    between atoms: _414  and  _415
REMARK  178  A    between atoms: _417  and  _419
REMARK  179  A    between atoms: _419  and  _420
REMARK  180  A    between atoms: _422  and  _424
REMARK  181  A    between atoms: _424  and  _425
REMARK  182  A    between atoms: _424  and  _427
REMARK  183  A    between atoms: _427  and  _428
REMARK  184  A    between atoms: _433  and  _435
REMARK  185  A    between atoms: _435  and  _436
REMARK  186  A    between atoms: _435  and  _438
REMARK  187  A    between atoms: _438  and  _439
REMARK  188  A    between atoms: _442  and  _444
REMARK  189  A    between atoms: _444  and  _445
REMARK  190  A    between atoms: _444  and  _447
REMARK  191  A    between atoms: _450  and  _452
REMARK  192  A    between atoms: _452  and  _453
REMARK  193  A    between atoms: _452  and  _455
REMARK  194  A    between atoms: _455  and  _456
REMARK  195  A    between atoms: _458  and  _460
REMARK  196  A    between atoms: _460  and  _461
REMARK  197  A    between atoms: _460  and  _463
REMARK  198  A    between atoms: _463  and  _464
REMARK  199  A    between atoms: _474  and  _476
REMARK  200  A    between atoms: _476  and  _477
REMARK  201  A    between atoms: _479  and  _481
REMARK  202  A    between atoms: _481  and  _482
REMARK  203  A    between atoms: _481  and  _484
REMARK  204  A    between atoms: _484  and  _485
REMARK  205  A    between atoms: _485  and  _486
REMARK  206  A    between atoms: _489  and  _491
REMARK  207  A    between atoms: _491  and  _492
REMARK  208  A    between atoms: _494  and  _496
REMARK  209  A    between atoms: _496  and  _497
REMARK  210  A    between atoms: _496  and  _499
REMARK  211  A    between atoms: _499  and  _500
REMARK  212  A    between atoms: _501  and  _503
REMARK  213  A    between atoms: _503  and  _504
REMARK  214  A    between atoms: _507  and  _509
REMARK  215  A    between atoms: _509  and  _510
REMARK  216  A    between atoms: _509  and  _512
REMARK  217  A    between atoms: _512  and  _513
REMARK  218  A    between atoms: _513  and  _514
REMARK  219  A    between atoms: _514  and  _515
REMARK  220  A    between atoms: _524  and  _526
REMARK  221  A    between atoms: _526  and  _527
REMARK  222  A    between atoms: _526  and  _529
REMARK  223  A    between atoms: _529  and  _530
REMARK  224  A    between atoms: _530  and  _531
REMARK  225  A    between atoms: _531  and  _532
REMARK  226  A    between atoms: _532  and  _533
REMARK  227  A    between atoms: _537  and  _539
REMARK  228  A    between atoms: _539  and  _540
REMARK  229  A    between atoms: _539  and  _542
REMARK  230  A    between atoms: _542  and  _543
REMARK  231  A    between atoms: _548  and  _549
REMARK  232  A    between atoms: _551  and  _553
REMARK  233  A    between atoms: _553  and  _554
REMARK  234  A    between atoms: _556  and  _558
REMARK  235  A    between atoms: _558  and  _559
REMARK  236  A    between atoms: _558  and  _561
REMARK  237  A    between atoms: _561  and  _562
REMARK  238  A    between atoms: _565  and  _567
REMARK  239  A    between atoms: _567  and  _568
REMARK  240  A    between atoms: _567  and  _570
REMARK  241  A    between atoms: _570  and  _571
REMARK  242  A    between atoms: _576  and  _577
REMARK                            x       y       z     vdW  Elec       q    Type
REMARK                         _______ _______ _______ _____ _____    ______ ____
ROOT
ATOM      1  CA  LEU A   1      16.744  23.301  42.837  0.00  0.00    +0.133 C 
ENDROOT
BRANCH   1   2
ATOM      2  N   LEU A   1      17.058  22.121  43.603  0.00  0.00    -0.239 NA
ATOM      3  H   LEU A   1      17.605  22.210  44.483  0.00  0.00    +0.142 HD
ENDBRANCH   1   2
BRANCH   1   4
ATOM      4  C   LEU A   1      17.851  24.325  42.933  0.00  0.00    +0.224 C 
ATOM      5  O   LEU A   1      18.328  24.640  44.020  0.00  0.00    -0.287 OA
ENDBRANCH   1   4
BRANCH   1   6
ATOM      6  CB  LEU A   1      15.446  23.909  43.347  0.00  0.00    +0.025 C 
BRANCH   6   7
ATOM      7  CG  LEU A   1      15.094  25.272  42.768  0.00  0.00    +0.002 C 
ATOM      8  CD2 LEU A   1      13.962  25.838  43.582  0.00  0.00    +0.000 C 
ATOM      9  CD1 LEU A   1      14.710  25.150  41.298  0.00  0.00    +0.000 C 
ENDBRANCH   6   7
ENDBRANCH   1   6
TORSDOF 4
REMARK  Name = ../refined-set-2016/1z6e/1z6e_pocket.pdb
REMARK  242 active torsions:
REMARK  status: ('A' for Active; 'I' for Inactive)
REMARK    1  A    between atoms: _1  and  _5
REMARK    2  A    between atoms: _5  and  _6
REMARK    3  A    between atoms: _5  and  _8
REMARK    4  A    between atoms: _8  and  _9
REMARK    5  A    between atoms: _12  and  _14
REMARK    6  A    between atoms: _14  and  _15
REMARK    7  A    between atoms: _14  and  _17
REMARK    8  A    between atoms: _20  and  _22
REMARK    9  A    between atoms: _22  and  _23
REMARK   10  A    between atoms: _22  and  _25
REMARK   11  A    between atoms: _25  and  _26
REMARK   12  A    between atoms: _31  and  _33
REMARK   13  A    between atoms: _33  and  _34
REMARK   14  A    between atoms: _33  and  _36
REMARK   15  A    between atoms: _38  and  _40
REMARK   16  A    between atoms: _40  and  _41
REMARK   17  A    between atoms: _40  and  _43
REMARK   18  A    between atoms: _43  and  _44
REMARK   19  A    between atoms: _44  and  _45
REMARK   20  A    between atoms: _50  and  _52
REMARK   21  A    between atoms: _52  and  _53
REMARK   22  A    between atoms: _52  and  _55
REMARK   23  A    between atoms: _55  and  _56
REMARK   24  A    between atoms: _62  and  _64
REMARK   25  A    between atoms: _64  and  _65
REMARK   26  A    between atoms: _64  and  _67
REMARK   27  A    between atoms: _67  and  _68
REMARK   28  A    between atoms: _71  and  _73
REMARK   29  A    between atoms: _73  and  _74
REMARK   30  A    between atoms: _73  and  _76
REMARK   31  A    between atoms: _76  and  _77
REMARK   32  A    between atoms: _77  and  _78
REMARK   33  A    between atoms: _78  and  _79
REMARK   34  A    between atoms: _79  and  _80
REMARK   35  A    between atoms: _84  and  _86
REMARK   36  A    between atoms: _86  and  _87
REMARK   37  A    between atoms: _86  and  _89
REMARK   38  A    between atoms: _89  and  _90
REMARK   39  A    between atoms: _90  and  _91
REMARK   40  A    between atoms: _94  and  _96
REMARK   41  A    between atoms: _96  and  _97
REMARK   42  A    between atoms: _96  and  _99
REMARK   43  A    between atoms: _99  and  _100
REMARK   44  A    between atoms: _103  and  _105
REMARK   45  A    between atoms: _105  and  _106
REMARK   46  A    between atoms: _105  and  _108
REMARK   47  A    between atoms: _108  and  _109
REMARK   48  A    between atoms: _114  and  _115
REMARK   49  A    between atoms: _117  and  _119
REMARK   50  A    between atoms: _119  and  _120
REMARK   51  A    between atoms: _119  and  _122
REMARK   52  A    between atoms: _122  and  _123
REMARK   53  A    between atoms: _126  and  _128
REMARK   54  A    between atoms: _128  and  _129
REMARK   55  A    between atoms: _128  and  _131
REMARK   56  A    between atoms: _131  and  _132
REMARK   57  A    between atoms: _135  and  _137
REMARK   58  A    between atoms: _137  and  _138
REMARK   59  A    between atoms: _137  and  _140
REMARK   60  A    between atoms: _143  and  _145
REMARK   61  A    between atoms: _145  and  _146
REMARK   62  A    between atoms: _148  and  _150
REMARK   63  A    between atoms: _150  and  _151
REMARK   64  A    between atoms: _150  and  _153
REMARK   65  A    between atoms: _153  and  _154
REMARK   66  A    between atoms: _154  and  _155
REMARK   67  A    between atoms: _155  and  _156
REMARK   68  A    between atoms: _165  and  _167
REMARK   69  A    between atoms: _167  and  _168
REMARK   70  A    between atoms: _167  and  _170
REMARK   71  A    between atoms: _170  and  _171
REMARK   72  A    between atoms: _176  and  _178
REMARK   73  A    between atoms: _178  and  _179
REMARK   74  A    between atoms: _178  and  _181
REMARK   75  A    between atoms: _181  and  _182
REMARK   76  A    between atoms: _182  and  _183
REMARK   77  A    between atoms: _186  and  _188
REMARK   78  A    between atoms: _188  and  _189
REMARK   79  A    between atoms: _188  and  _191
REMARK   80  A    between atoms: _191  and  _192
REMARK   81  A    between atoms: _192  and  _193
REMARK   82  A    between atoms: _193  and  _194
REMARK   83  A    between atoms: _194  and  _195
REMARK   84  A    between atoms: _199  and  _201
REMARK   85  A    between atoms: _201  and  _202
REMARK   86  A    between atoms: _204  and  _206
REMARK   87  A    between atoms: _206  and  _207
REMARK   88  A    between atoms: _206  and  _209
REMARK   89  A    between atoms: _209  and  _210
REMARK   90  A    between atoms: _210  and  _211
REMARK   91  A    between atoms: _211  and  _212
REMARK   92  A    between atoms: _221  and  _223
REMARK   93  A    between atoms: _223  and  _224
REMARK   94  A    between atoms: _223  and  _226
REMARK   95  A    between atoms: _226  and  _227
REMARK   96  A    between atoms: _227  and  _228
REMARK   97  A    between atoms: _233  and  _235
REMARK   98  A    between atoms: _235  and  _236
REMARK   99  A    between atoms: _235  and  _238
REMARK  100  A    between atoms: _238  and  _239
REMARK  101  A    between atoms: _242  and  _244
REMARK  102  A    between atoms: _244  and  _245
REMARK  103  A    between atoms: _244  and  _247
REMARK  104  A    between atoms: _250  and  _252
REMARK  105  A    between atoms: _252  and  _253
REMARK  106  A    between atoms: _252  and  _255
REMARK  107  A    between atoms: _255  and  _256
REMARK  108  A    between atoms: _258  and  _260
REMARK  109  A    between atoms: _260  and  _261
REMARK  110  A    between atoms: _260  and  _263
REMARK  111  A    between atoms: _263  and  _264
REMARK  112  A    between atoms: _266  and  _268
REMARK  113  A    between atoms: _268  and  _269
REMARK  114  A    between atoms: _268  and  _271
REMARK  115  A    between atoms: _271  and  _272
REMARK  116  A    between atoms: _278  and  _280
REMARK  117  A    between atoms: _280  and  _281
REMARK  118  A    between atoms: _280  and  _283
REMARK  119  A    between atoms: _283  and  _284
REMARK  120  A    between atoms: _287  and  _289
REMARK  121  A    between atoms: _289  and  _290
REMARK  122  A    between atoms: _289  and  _292
REMARK  123  A    between atoms: _292  and  _293
REMARK  124  A    between atoms: _296  and  _298
REMARK  125  A    between atoms: _298  and  _299
REMARK  126  A    between atoms: _298  and  _301
REMARK  127  A    between atoms: _301  and  _302
REMARK  128  A    between atoms: _305  and  _307
REMARK  129  A    between atoms: _307  and  _308
REMARK  130  A    between atoms: _307  and  _310
REMARK  131  A    between atoms: _310  and  _311
REMARK  132  A    between atoms: _311  and  _312
REMARK  133  A    between atoms: _314  and  _316
REMARK  134  A    between atoms: _316  and  _317
REMARK  135  A    between atoms: _316  and  _319
REMARK  136  A    between atoms: _321  and  _323
REMARK  137  A    between atoms: _323  and  _324
REMARK  138  A    between atoms: _327  and  _329
REMARK  139  A    between atoms: _329  and  _330
REMARK  140  A    between atoms: _332  and  _334
REMARK  141  A    between atoms: _334  and  _335
REMARK  142  A    between atoms: _334  and  _337
REMARK  143  A    between atoms: _337  and  _338
REMARK  144  A    between atoms: _343  and  _344
REMARK  145  A    between atoms: _346  and  _348
REMARK  146  A    between atoms: _348  and  _349
REMARK  147  A    between atoms: _348  and  _351
REMARK  148  A    between atoms: _351  and  _352
REMARK  149  A    between atoms: _352  and  _353
REMARK  150  A    between atoms: _356  and  _358
REMARK  151  A    between atoms: _358  and  _359
REMARK  152  A    between atoms: _358  and  _361
REMARK  153  A    between atoms: _361  and  _362
REMARK  154  A    between atoms: _365  and  _367
REMARK  155  A    between atoms: _367  and  _368
REMARK  156  A    between atoms: _371  and  _373
REMARK  157  A    between atoms: _373  and  _374
REMARK  158  A    between atoms: _373  and  _376
REMARK  159  A    between atoms: _376  and  _377
REMARK  160  A    between atoms: _377  and  _500
REMARK  161  A    between atoms: _378  and  _380
REMARK  162  A    between atoms: _380  and  _381
REMARK  163  A    between atoms: _380  and  _383
REMARK  164  A    between atoms: _383  and  _384
REMARK  165  A    between atoms: _384  and  _385
REMARK  166  A    between atoms: _390  and  _392
REMARK  167  A    between atoms: _392  and  _393
REMARK  168  A    between atoms: _395  and  _397
REMARK  169  A    between atoms: _397  and  _398
REMARK  170  A    between atoms: _397  and  _400
REMARK  171  A    between atoms: _400  and  _401
REMARK  172  A    between atoms: _404  and  _406
REMARK  173  A    between atoms: _406  and  _407
REMARK  174  A    between atoms: _406  and  _409
REMARK  175  A    between atoms: _409  and  _410
REMARK  176  A    between atoms: _412  and  _414
REMARK  177  A    between atoms: _414  and  _415
REMARK  178  A    between atoms: _417  and  _419
REMARK  179  A    between atoms: _419  and  _420
REMARK  180  A    between atoms: _422  and  _424
REMARK  181  A    between atoms: _424  and  _425
REMARK  182  A    between atoms: _424  and  _427
REMARK  183  A    between atoms: _427  and  _428
REMARK  184  A    between atoms: _433  and  _435
REMARK  185  A    between atoms: _435  and  _436
REMARK  186  A    between atoms: _435  and  _438
REMARK  187  A    between atoms: _438  and  _439
REMARK  188  A    between atoms: _442  and  _444
REMARK  189  A    between atoms: _444  and  _445
REMARK  190  A    between atoms: _444  and  _447
REMARK  191  A    between atoms: _450  and  _452
REMARK  192  A    between atoms: _452  and  _453
REMARK  193  A    between atoms: _452  and  _455
REMARK  194  A    between atoms: _455  and  _456
REMARK  195  A    between atoms: _458  and  _460
REMARK  196  A    between atoms: _460  and  _461
REMARK  197  A    between atoms: _460  and  _463
REMARK  198  A    between atoms: _463  and  _464
REMARK  199  A    between atoms: _474  and  _476
REMARK  200  A    between atoms: _476  and  _477
REMARK  201  A    between atoms: _479  and  _481
REMARK  202  A    between atoms: _481  and  _482
REMARK  203  A    between atoms: _481  and  _484
REMARK  204  A    between atoms: _484  and  _485
REMARK  205  A    between atoms: _485  and  _486
REMARK  206  A    between atoms: _489  and  _491
REMARK  207  A    between atoms: _491  and  _492
REMARK  208  A    between atoms: _494  and  _496
REMARK  209  A    between atoms: _496  and  _497
REMARK  210  A    between atoms: _496  and  _499
REMARK  211  A    between atoms: _499  and  _500
REMARK  212  A    between atoms: _501  and  _503
REMARK  213  A    between atoms: _503  and  _504
REMARK  214  A    between atoms: _507  and  _509
REMARK  215  A    between atoms: _509  and  _510
REMARK  216  A    between atoms: _509  and  _512
REMARK  217  A    between atoms: _512  and  _513
REMARK  218  A    between atoms: _513  and  _514
REMARK  219  A    between atoms: _514  and  _515
REMARK  220  A    between atoms: _524  and  _526
REMARK  221  A    between atoms: _526  and  _527
REMARK  222  A    between atoms: _526  and  _529
REMARK  223  A    between atoms: _529  and  _530
REMARK  224  A    between atoms: _530  and  _531
REMARK  225  A    between atoms: _531  and  _532
REMARK  226  A    between atoms: _532  and  _533
REMARK  227  A    between atoms: _537  and  _539
REMARK  228  A    between atoms: _539  and  _540
REMARK  229  A    between atoms: _539  and  _542
REMARK  230  A    between atoms: _542  and  _543
REMARK  231  A    between atoms: _548  and  _549
REMARK  232  A    between atoms: _551  and  _553
REMARK  233  A    between atoms: _553  and  _554
REMARK  234  A    between atoms: _556  and  _558
REMARK  235  A    between atoms: _558  and  _559
REMARK  236  A    between atoms: _558  and  _561
REMARK  237  A    between atoms: _561  and  _562
REMARK  238  A    between atoms: _565  and  _567
REMARK  239  A    between atoms: _567  and  _568
REMARK  240  A    between atoms: _567  and  _570
REMARK  241  A    between atoms: _570  and  _571
REMARK  242  A    between atoms: _576  and  _577
REMARK                            x       y       z     vdW  Elec       q    Type
REMARK                         _______ _______ _______ _____ _____    ______ ____
ROOT
ATOM      1  CA  VAL A   1      18.471  29.116  43.522  0.00  0.00    +0.133 C 
ENDROOT
BRANCH   1   2
ATOM      2  CB  VAL A   1      17.788  29.050  44.928  0.00  0.00    +0.023 C 
ATOM      3  CG2 VAL A   1      18.700  28.368  45.933  0.00  0.00    +0.002 C 
ATOM      4  CG1 VAL A   1      16.468  28.315  44.831  0.00  0.00    +0.002 C 
ENDBRANCH   1   2
BRANCH   1   5
ATOM      5  N   VAL A   1      19.046  27.829  43.122  0.00  0.00    -0.239 NA
ATOM      6  H   VAL A   1      19.805  27.413  43.699  0.00  0.00    +0.142 HD
ENDBRANCH   1   5
BRANCH   1   7
ATOM      7  C   VAL A   1      19.499  30.247  43.538  0.00  0.00    +0.224 C 
ATOM      8  O   VAL A   1      20.556  30.144  44.164  0.00  0.00    -0.287 OA
ENDBRANCH   1   7
TORSDOF 3
REMARK  Name = ../refined-set-2016/1z6e/1z6e_pocket.pdb
REMARK  242 active torsions:
REMARK  status: ('A' for Active; 'I' for Inactive)
REMARK    1  A    between atoms: _1  and  _5
REMARK    2  A    between atoms: _5  and  _6
REMARK    3  A    between atoms: _5  and  _8
REMARK    4  A    between atoms: _8  and  _9
REMARK    5  A    between atoms: _12  and  _14
REMARK    6  A    between atoms: _14  and  _15
REMARK    7  A    between atoms: _14  and  _17
REMARK    8  A    between atoms: _20  and  _22
REMARK    9  A    between atoms: _22  and  _23
REMARK   10  A    between atoms: _22  and  _25
REMARK   11  A    between atoms: _25  and  _26
REMARK   12  A    between atoms: _31  and  _33
REMARK   13  A    between atoms: _33  and  _34
REMARK   14  A    between atoms: _33  and  _36
REMARK   15  A    between atoms: _38  and  _40
REMARK   16  A    between atoms: _40  and  _41
REMARK   17  A    between atoms: _40  and  _43
REMARK   18  A    between atoms: _43  and  _44
REMARK   19  A    between atoms: _44  and  _45
REMARK   20  A    between atoms: _50  and  _52
REMARK   21  A    between atoms: _52  and  _53
REMARK   22  A    between atoms: _52  and  _55
REMARK   23  A    between atoms: _55  and  _56
REMARK   24  A    between atoms: _62  and  _64
REMARK   25  A    between atoms: _64  and  _65
REMARK   26  A    between atoms: _64  and  _67
REMARK   27  A    between atoms: _67  and  _68
REMARK   28  A    between atoms: _71  and  _73
REMARK   29  A    between atoms: _73  and  _74
REMARK   30  A    between atoms: _73  and  _76
REMARK   31  A    between atoms: _76  and  _77
REMARK   32  A    between atoms: _77  and  _78
REMARK   33  A    between atoms: _78  and  _79
REMARK   34  A    between atoms: _79  and  _80
REMARK   35  A    between atoms: _84  and  _86
REMARK   36  A    between atoms: _86  and  _87
REMARK   37  A    between atoms: _86  and  _89
REMARK   38  A    between atoms: _89  and  _90
REMARK   39  A    between atoms: _90  and  _91
REMARK   40  A    between atoms: _94  and  _96
REMARK   41  A    between atoms: _96  and  _97
REMARK   42  A    between atoms: _96  and  _99
REMARK   43  A    between atoms: _99  and  _100
REMARK   44  A    between atoms: _103  and  _105
REMARK   45  A    between atoms: _105  and  _106
REMARK   46  A    between atoms: _105  and  _108
REMARK   47  A    between atoms: _108  and  _109
REMARK   48  A    between atoms: _114  and  _115
REMARK   49  A    between atoms: _117  and  _119
REMARK   50  A    between atoms: _119  and  _120
REMARK   51  A    between atoms: _119  and  _122
REMARK   52  A    between atoms: _122  and  _123
REMARK   53  A    between atoms: _126  and  _128
REMARK   54  A    between atoms: _128  and  _129
REMARK   55  A    between atoms: _128  and  _131
REMARK   56  A    between atoms: _131  and  _132
REMARK   57  A    between atoms: _135  and  _137
REMARK   58  A    between atoms: _137  and  _138
REMARK   59  A    between atoms: _137  and  _140
REMARK   60  A    between atoms: _143  and  _145
REMARK   61  A    between atoms: _145  and  _146
REMARK   62  A    between atoms: _148  and  _150
REMARK   63  A    between atoms: _150  and  _151
REMARK   64  A    between atoms: _150  and  _153
REMARK   65  A    between atoms: _153  and  _154
REMARK   66  A    between atoms: _154  and  _155
REMARK   67  A    between atoms: _155  and  _156
REMARK   68  A    between atoms: _165  and  _167
REMARK   69  A    between atoms: _167  and  _168
REMARK   70  A    between atoms: _167  and  _170
REMARK   71  A    between atoms: _170  and  _171
REMARK   72  A    between atoms: _176  and  _178
REMARK   73  A    between atoms: _178  and  _179
REMARK   74  A    between atoms: _178  and  _181
REMARK   75  A    between atoms: _181  and  _182
REMARK   76  A    between atoms: _182  and  _183
REMARK   77  A    between atoms: _186  and  _188
REMARK   78  A    between atoms: _188  and  _189
REMARK   79  A    between atoms: _188  and  _191
REMARK   80  A    between atoms: _191  and  _192
REMARK   81  A    between atoms: _192  and  _193
REMARK   82  A    between atoms: _193  and  _194
REMARK   83  A    between atoms: _194  and  _195
REMARK   84  A    between atoms: _199  and  _201
REMARK   85  A    between atoms: _201  and  _202
REMARK   86  A    between atoms: _204  and  _206
REMARK   87  A    between atoms: _206  and  _207
REMARK   88  A    between atoms: _206  and  _209
REMARK   89  A    between atoms: _209  and  _210
REMARK   90  A    between atoms: _210  and  _211
REMARK   91  A    between atoms: _211  and  _212
REMARK   92  A    between atoms: _221  and  _223
REMARK   93  A    between atoms: _223  and  _224
REMARK   94  A    between atoms: _223  and  _226
REMARK   95  A    between atoms: _226  and  _227
REMARK   96  A    between atoms: _227  and  _228
REMARK   97  A    between atoms: _233  and  _235
REMARK   98  A    between atoms: _235  and  _236
REMARK   99  A    between atoms: _235  and  _238
REMARK  100  A    between atoms: _238  and  _239
REMARK  101  A    between atoms: _242  and  _244
REMARK  102  A    between atoms: _244  and  _245
REMARK  103  A    between atoms: _244  and  _247
REMARK  104  A    between atoms: _250  and  _252
REMARK  105  A    between atoms: _252  and  _253
REMARK  106  A    between atoms: _252  and  _255
REMARK  107  A    between atoms: _255  and  _256
REMARK  108  A    between atoms: _258  and  _260
REMARK  109  A    between atoms: _260  and  _261
REMARK  110  A    between atoms: _260  and  _263
REMARK  111  A    between atoms: _263  and  _264
REMARK  112  A    between atoms: _266  and  _268
REMARK  113  A    between atoms: _268  and  _269
REMARK  114  A    between atoms: _268  and  _271
REMARK  115  A    between atoms: _271  and  _272
REMARK  116  A    between atoms: _278  and  _280
REMARK  117  A    between atoms: _280  and  _281
REMARK  118  A    between atoms: _280  and  _283
REMARK  119  A    between atoms: _283  and  _284
REMARK  120  A    between atoms: _287  and  _289
REMARK  121  A    between atoms: _289  and  _290
REMARK  122  A    between atoms: _289  and  _292
REMARK  123  A    between atoms: _292  and  _293
REMARK  124  A    between atoms: _296  and  _298
REMARK  125  A    between atoms: _298  and  _299
REMARK  126  A    between atoms: _298  and  _301
REMARK  127  A    between atoms: _301  and  _302
REMARK  128  A    between atoms: _305  and  _307
REMARK  129  A    between atoms: _307  and  _308
REMARK  130  A    between atoms: _307  and  _310
REMARK  131  A    between atoms: _310  and  _311
REMARK  132  A    between atoms: _311  and  _312
REMARK  133  A    between atoms: _314  and  _316
REMARK  134  A    between atoms: _316  and  _317
REMARK  135  A    between atoms: _316  and  _319
REMARK  136  A    between atoms: _321  and  _323
REMARK  137  A    between atoms: _323  and  _324
REMARK  138  A    between atoms: _327  and  _329
REMARK  139  A    between atoms: _329  and  _330
REMARK  140  A    between atoms: _332  and  _334
REMARK  141  A    between atoms: _334  and  _335
REMARK  142  A    between atoms: _334  and  _337
REMARK  143  A    between atoms: _337  and  _338
REMARK  144  A    between atoms: _343  and  _344
REMARK  145  A    between atoms: _346  and  _348
REMARK  146  A    between atoms: _348  and  _349
REMARK  147  A    between atoms: _348  and  _351
REMARK  148  A    between atoms: _351  and  _352
REMARK  149  A    between atoms: _352  and  _353
REMARK  150  A    between atoms: _356  and  _358
REMARK  151  A    between atoms: _358  and  _359
REMARK  152  A    between atoms: _358  and  _361
REMARK  153  A    between atoms: _361  and  _362
REMARK  154  A    between atoms: _365  and  _367
REMARK  155  A    between atoms: _367  and  _368
REMARK  156  A    between atoms: _371  and  _373
REMARK  157  A    between atoms: _373  and  _374
REMARK  158  A    between atoms: _373  and  _376
REMARK  159  A    between atoms: _376  and  _377
REMARK  160  A    between atoms: _377  and  _500
REMARK  161  A    between atoms: _378  and  _380
REMARK  162  A    between atoms: _380  and  _381
REMARK  163  A    between atoms: _380  and  _383
REMARK  164  A    between atoms: _383  and  _384
REMARK  165  A    between atoms: _384  and  _385
REMARK  166  A    between atoms: _390  and  _392
REMARK  167  A    between atoms: _392  and  _393
REMARK  168  A    between atoms: _395  and  _397
REMARK  169  A    between atoms: _397  and  _398
REMARK  170  A    between atoms: _397  and  _400
REMARK  171  A    between atoms: _400  and  _401
REMARK  172  A    between atoms: _404  and  _406
REMARK  173  A    between atoms: _406  and  _407
REMARK  174  A    between atoms: _406  and  _409
REMARK  175  A    between atoms: _409  and  _410
REMARK  176  A    between atoms: _412  and  _414
REMARK  177  A    between atoms: _414  and  _415
REMARK  178  A    between atoms: _417  and  _419
REMARK  179  A    between atoms: _419  and  _420
REMARK  180  A    between atoms: _422  and  _424
REMARK  181  A    between atoms: _424  and  _425
REMARK  182  A    between atoms: _424  and  _427
REMARK  183  A    between atoms: _427  and  _428
REMARK  184  A    between atoms: _433  and  _435
REMARK  185  A    between atoms: _435  and  _436
REMARK  186  A    between atoms: _435  and  _438
REMARK  187  A    between atoms: _438  and  _439
REMARK  188  A    between atoms: _442  and  _444
REMARK  189  A    between atoms: _444  and  _445
REMARK  190  A    between atoms: _444  and  _447
REMARK  191  A    between atoms: _450  and  _452
REMARK  192  A    between atoms: _452  and  _453
REMARK  193  A    between atoms: _452  and  _455
REMARK  194  A    between atoms: _455  and  _456
REMARK  195  A    between atoms: _458  and  _460
REMARK  196  A    between atoms: _460  and  _461
REMARK  197  A    between atoms: _460  and  _463
REMARK  198  A    between atoms: _463  and  _464
REMARK  199  A    between atoms: _474  and  _476
REMARK  200  A    between atoms: _476  and  _477
REMARK  201  A    between atoms: _479  and  _481
REMARK  202  A    between atoms: _481  and  _482
REMARK  203  A    between atoms: _481  and  _484
REMARK  204  A    between atoms: _484  and  _485
REMARK  205  A    between atoms: _485  and  _486
REMARK  206  A    between atoms: _489  and  _491
REMARK  207  A    between atoms: _491  and  _492
REMARK  208  A    between atoms: _494  and  _496
REMARK  209  A    between atoms: _496  and  _497
REMARK  210  A    between atoms: _496  and  _499
REMARK  211  A    between atoms: _499  and  _500
REMARK  212  A    between atoms: _501  and  _503
REMARK  213  A    between atoms: _503  and  _504
REMARK  214  A    between atoms: _507  and  _509
REMARK  215  A    between atoms: _509  and  _510
REMARK  216  A    between atoms: _509  and  _512
REMARK  217  A    between atoms: _512  and  _513
REMARK  218  A    between atoms: _513  and  _514
REMARK  219  A    between atoms: _514  and  _515
REMARK  220  A    between atoms: _524  and  _526
REMARK  221  A    between atoms: _526  and  _527
REMARK  222  A    between atoms: _526  and  _529
REMARK  223  A    between atoms: _529  and  _530
REMARK  224  A    between atoms: _530  and  _531
REMARK  225  A    between atoms: _531  and  _532
REMARK  226  A    between atoms: _532  and  _533
REMARK  227  A    between atoms: _537  and  _539
REMARK  228  A    between atoms: _539  and  _540
REMARK  229  A    between atoms: _539  and  _542
REMARK  230  A    between atoms: _542  and  _543
REMARK  231  A    between atoms: _548  and  _549
REMARK  232  A    between atoms: _551  and  _553
REMARK  233  A    between atoms: _553  and  _554
REMARK  234  A    between atoms: _556  and  _558
REMARK  235  A    between atoms: _558  and  _559
REMARK  236  A    between atoms: _558  and  _561
REMARK  237  A    between atoms: _561  and  _562
REMARK  238  A    between atoms: _565  and  _567
REMARK  239  A    between atoms: _567  and  _568
REMARK  240  A    between atoms: _567  and  _570
REMARK  241  A    between atoms: _570  and  _571
REMARK  242  A    between atoms: _576  and  _577
REMARK                            x       y       z     vdW  Elec       q    Type
REMARK                         _______ _______ _______ _____ _____    ______ ____
ROOT
ATOM      1  C   PHE A   3      11.355  40.641  58.562  0.00  0.00    +0.241 C 
ATOM      2  N   ILE A   4      11.949  40.960  59.700  0.00  0.00    -0.297 N 
ATOM      3  H   ILE A   4      11.400  40.944  60.583  0.00  0.00    +0.150 HD
ATOM      4  O   PHE A   3      11.949  40.613  57.483  0.00  0.00    -0.273 OA
ENDROOT
BRANCH   2   5
ATOM      5  CA  ILE A   4      13.350  41.332  59.743  0.00  0.00    +0.149 C 
BRANCH   5   6
ATOM      6  C   ILE A   4      14.331  40.225  59.375  0.00  0.00    +0.241 C 
ATOM      7  O   ILE A   4      14.331  39.144  59.969  0.00  0.00    -0.273 OA
ATOM      8  N   ILE A   5      15.154  40.507  58.370  0.00  0.00    -0.297 N 
ATOM      9  H   ILE A   5      15.062  41.421  57.883  0.00  0.00    +0.150 HD
BRANCH   8  10
ATOM     10  CA  ILE A   5      16.180  39.574  57.931  0.00  0.00    +0.149 C 
BRANCH  10  11
ATOM     11  C   ILE A   5      17.392  39.956  58.776  0.00  0.00    +0.241 C 
ATOM     12  N   THR A   6      17.723  39.123  59.754  0.00  0.00    -0.296 N 
ATOM     13  H   THR A   6      17.161  38.259  59.893  0.00  0.00    +0.150 HD
ATOM     14  O   ILE A   5      18.001  41.000  58.555  0.00  0.00    -0.273 OA
BRANCH  12  15
ATOM     15  CA  THR A   6      18.851  39.382  60.639  0.00  0.00    +0.164 C 
BRANCH  15  16
ATOM     16  C   THR A   6      20.170  39.024  59.953  0.00  0.00    +0.229 C 
ATOM     17  O   THR A   6      20.168  38.542  58.823  0.00  0.00    -0.286 OA
ENDBRANCH  15  16
BRANCH  15  18
ATOM     18  CB  THR A   6      18.739  38.543  61.915  0.00  0.00    +0.136 C 
ATOM     19  CG2 THR A   6      17.372  38.736  62.546  0.00  0.00    +0.034 C 
BRANCH  18  20
ATOM     20  OG1 THR A   6      18.907  37.156  61.583  0.00  0.00    -0.382 OA
ATOM     21  HG1 THR A   6      18.835  36.610  62.406  0.00  0.00    +0.210 HD
ENDBRANCH  18  20
ENDBRANCH  15  18
ENDBRANCH  12  15
ENDBRANCH  10  11
BRANCH  10  22
ATOM     22  CB  ILE A   5      16.527  39.766  56.436  0.00  0.00    +0.027 C 
ATOM     23  CG2 ILE A   5      17.671  38.838  56.045  0.00  0.00    +0.002 C 
BRANCH  22  24
ATOM     24  CG1 ILE A   5      15.281  39.545  55.569  0.00  0.00    +0.002 C 
ATOM     25  CD1 ILE A   5      14.639  38.181  55.710  0.00  0.00    +0.000 C 
ENDBRANCH  22  24
ENDBRANCH  10  22
ENDBRANCH   8  10
ENDBRANCH   5   6
BRANCH   5  26
ATOM     26  CB  ILE A   4      13.687  41.899  61.135  0.00  0.00    +0.027 C 
ATOM     27  CG2 ILE A   4      15.191  42.036  61.310  0.00  0.00    +0.002 C 
BRANCH  26  28
ATOM     28  CG1 ILE A   4      12.973  43.246  61.293  0.00  0.00    +0.002 C 
ATOM     29  CD1 ILE A   4      12.878  43.734  62.706  0.00  0.00    +0.000 C 
ENDBRANCH  26  28
ENDBRANCH   5  26
ENDBRANCH   2   5
BRANCH   1  30
ATOM     30  CA  PHE A   3       9.878  40.303  58.662  0.00  0.00    +0.153 C 
BRANCH  30  33
ATOM     31  C   SER A   2       8.179  41.420  57.331  0.00  0.00    +0.243 C 
ATOM     32  O   SER A   2       7.712  42.002  58.315  0.00  0.00    -0.273 OA
ATOM     33  N   PHE A   3       9.211  40.583  57.401  0.00  0.00    -0.297 N 
ATOM     34  H   PHE A   3       9.548  40.118  56.534  0.00  0.00    +0.150 HD
BRANCH  31  35
ATOM     35  CA  SER A   2       7.571  41.613  55.949  0.00  0.00    +0.178 C 
BRANCH  35  37
ATOM     36  C   SER A   1       9.570  41.703  54.538  0.00  0.00    +0.241 C 
ATOM     37  N   SER A   2       8.508  41.042  54.990  0.00  0.00    -0.295 N 
ATOM     38  H   SER A   2       8.339  40.076  54.644  0.00  0.00    +0.150 HD
ATOM     39  O   SER A   1       9.842  42.858  54.868  0.00  0.00    -0.274 OA
BRANCH  36  40
ATOM     40  CA  SER A   1      10.449  40.918  53.567  0.00  0.00    +0.174 C 
BRANCH  40  41
ATOM     41  N   SER A   1      10.954  41.627  52.399  0.00  0.00    -0.236 NA
ATOM     42  H   SER A   1      11.843  42.164  52.460  0.00  0.00    +0.142 HD
ENDBRANCH  40  41
BRANCH  40  43
ATOM     43  CB  SER A   1      11.614  40.292  54.339  0.00  0.00    +0.163 C 
BRANCH  43  44
ATOM     44  OG  SER A   1      11.125  39.452  55.374  0.00  0.00    -0.380 OA
ATOM     45  H   SER A   1      10.574  38.731  54.979  0.00  0.00    +0.211 HD
ENDBRANCH  43  44
ENDBRANCH  40  43
ENDBRANCH  36  40
ENDBRANCH  35  37
BRANCH  35  46
ATOM     46  CB  SER A   2       6.229  40.876  55.899  0.00  0.00    +0.166 C 
BRANCH  46  47
ATOM     47  OG  SER A   2       5.721  40.803  54.581  0.00  0.00    -0.380 OA
ATOM     48  H   SER A   2       6.365  40.318  54.007  0.00  0.00    +0.211 HD
ENDBRANCH  46  47
ENDBRANCH  35  46
ENDBRANCH  31  35
ENDBRANCH  30  33
BRANCH  30  49
ATOM     49  CB  PHE A   3       9.673  38.836  59.035  0.00  0.00    +0.055 C 
BRANCH  49  50
ATOM     50  CG  PHE A   3       8.228  38.449  59.123  0.00  0.00    -0.020 A 
ATOM     51  CD2 PHE A   3       7.459  38.818  60.227  0.00  0.00    -0.004 A 
ATOM     52  CE2 PHE A   3       6.093  38.524  60.276  0.00  0.00    -0.000 A 
ATOM     53  CZ  PHE A   3       5.492  37.851  59.213  0.00  0.00    -0.000 A 
ATOM     54  CE1 PHE A   3       6.252  37.477  58.110  0.00  0.00    -0.000 A 
ATOM     55  CD1 PHE A   3       7.612  37.773  58.070  0.00  0.00    -0.004 A 
ENDBRANCH  49  50
ENDBRANCH  30  49
ENDBRANCH   1  30
TORSDOF 24
REMARK  Name = ../refined-set-2016/1z6e/1z6e_pocket.pdb
REMARK  242 active torsions:
REMARK  status: ('A' for Active; 'I' for Inactive)
REMARK    1  A    between atoms: _1  and  _5
REMARK    2  A    between atoms: _5  and  _6
REMARK    3  A    between atoms: _5  and  _8
REMARK    4  A    between atoms: _8  and  _9
REMARK    5  A    between atoms: _12  and  _14
REMARK    6  A    between atoms: _14  and  _15
REMARK    7  A    between atoms: _14  and  _17
REMARK    8  A    between atoms: _20  and  _22
REMARK    9  A    between atoms: _22  and  _23
REMARK   10  A    between atoms: _22  and  _25
REMARK   11  A    between atoms: _25  and  _26
REMARK   12  A    between atoms: _31  and  _33
REMARK   13  A    between atoms: _33  and  _34
REMARK   14  A    between atoms: _33  and  _36
REMARK   15  A    between atoms: _38  and  _40
REMARK   16  A    between atoms: _40  and  _41
REMARK   17  A    between atoms: _40  and  _43
REMARK   18  A    between atoms: _43  and  _44
REMARK   19  A    between atoms: _44  and  _45
REMARK   20  A    between atoms: _50  and  _52
REMARK   21  A    between atoms: _52  and  _53
REMARK   22  A    between atoms: _52  and  _55
REMARK   23  A    between atoms: _55  and  _56
REMARK   24  A    between atoms: _62  and  _64
REMARK   25  A    between atoms: _64  and  _65
REMARK   26  A    between atoms: _64  and  _67
REMARK   27  A    between atoms: _67  and  _68
REMARK   28  A    between atoms: _71  and  _73
REMARK   29  A    between atoms: _73  and  _74
REMARK   30  A    between atoms: _73  and  _76
REMARK   31  A    between atoms: _76  and  _77
REMARK   32  A    between atoms: _77  and  _78
REMARK   33  A    between atoms: _78  and  _79
REMARK   34  A    between atoms: _79  and  _80
REMARK   35  A    between atoms: _84  and  _86
REMARK   36  A    between atoms: _86  and  _87
REMARK   37  A    between atoms: _86  and  _89
REMARK   38  A    between atoms: _89  and  _90
REMARK   39  A    between atoms: _90  and  _91
REMARK   40  A    between atoms: _94  and  _96
REMARK   41  A    between atoms: _96  and  _97
REMARK   42  A    between atoms: _96  and  _99
REMARK   43  A    between atoms: _99  and  _100
REMARK   44  A    between atoms: _103  and  _105
REMARK   45  A    between atoms: _105  and  _106
REMARK   46  A    between atoms: _105  and  _108
REMARK   47  A    between atoms: _108  and  _109
REMARK   48  A    between atoms: _114  and  _115
REMARK   49  A    between atoms: _117  and  _119
REMARK   50  A    between atoms: _119  and  _120
REMARK   51  A    between atoms: _119  and  _122
REMARK   52  A    between atoms: _122  and  _123
REMARK   53  A    between atoms: _126  and  _128
REMARK   54  A    between atoms: _128  and  _129
REMARK   55  A    between atoms: _128  and  _131
REMARK   56  A    between atoms: _131  and  _132
REMARK   57  A    between atoms: _135  and  _137
REMARK   58  A    between atoms: _137  and  _138
REMARK   59  A    between atoms: _137  and  _140
REMARK   60  A    between atoms: _143  and  _145
REMARK   61  A    between atoms: _145  and  _146
REMARK   62  A    between atoms: _148  and  _150
REMARK   63  A    between atoms: _150  and  _151
REMARK   64  A    between atoms: _150  and  _153
REMARK   65  A    between atoms: _153  and  _154
REMARK   66  A    between atoms: _154  and  _155
REMARK   67  A    between atoms: _155  and  _156
REMARK   68  A    between atoms: _165  and  _167
REMARK   69  A    between atoms: _167  and  _168
REMARK   70  A    between atoms: _167  and  _170
REMARK   71  A    between atoms: _170  and  _171
REMARK   72  A    between atoms: _176  and  _178
REMARK   73  A    between atoms: _178  and  _179
REMARK   74  A    between atoms: _178  and  _181
REMARK   75  A    between atoms: _181  and  _182
REMARK   76  A    between atoms: _182  and  _183
REMARK   77  A    between atoms: _186  and  _188
REMARK   78  A    between atoms: _188  and  _189
REMARK   79  A    between atoms: _188  and  _191
REMARK   80  A    between atoms: _191  and  _192
REMARK   81  A    between atoms: _192  and  _193
REMARK   82  A    between atoms: _193  and  _194
REMARK   83  A    between atoms: _194  and  _195
REMARK   84  A    between atoms: _199  and  _201
REMARK   85  A    between atoms: _201  and  _202
REMARK   86  A    between atoms: _204  and  _206
REMARK   87  A    between atoms: _206  and  _207
REMARK   88  A    between atoms: _206  and  _209
REMARK   89  A    between atoms: _209  and  _210
REMARK   90  A    between atoms: _210  and  _211
REMARK   91  A    between atoms: _211  and  _212
REMARK   92  A    between atoms: _221  and  _223
REMARK   93  A    between atoms: _223  and  _224
REMARK   94  A    between atoms: _223  and  _226
REMARK   95  A    between atoms: _226  and  _227
REMARK   96  A    between atoms: _227  and  _228
REMARK   97  A    between atoms: _233  and  _235
REMARK   98  A    between atoms: _235  and  _236
REMARK   99  A    between atoms: _235  and  _238
REMARK  100  A    between atoms: _238  and  _239
REMARK  101  A    between atoms: _242  and  _244
REMARK  102  A    between atoms: _244  and  _245
REMARK  103  A    between atoms: _244  and  _247
REMARK  104  A    between atoms: _250  and  _252
REMARK  105  A    between atoms: _252  and  _253
REMARK  106  A    between atoms: _252  and  _255
REMARK  107  A    between atoms: _255  and  _256
REMARK  108  A    between atoms: _258  and  _260
REMARK  109  A    between atoms: _260  and  _261
REMARK  110  A    between atoms: _260  and  _263
REMARK  111  A    between atoms: _263  and  _264
REMARK  112  A    between atoms: _266  and  _268
REMARK  113  A    between atoms: _268  and  _269
REMARK  114  A    between atoms: _268  and  _271
REMARK  115  A    between atoms: _271  and  _272
REMARK  116  A    between atoms: _278  and  _280
REMARK  117  A    between atoms: _280  and  _281
REMARK  118  A    between atoms: _280  and  _283
REMARK  119  A    between atoms: _283  and  _284
REMARK  120  A    between atoms: _287  and  _289
REMARK  121  A    between atoms: _289  and  _290
REMARK  122  A    between atoms: _289  and  _292
REMARK  123  A    between atoms: _292  and  _293
REMARK  124  A    between atoms: _296  and  _298
REMARK  125  A    between atoms: _298  and  _299
REMARK  126  A    between atoms: _298  and  _301
REMARK  127  A    between atoms: _301  and  _302
REMARK  128  A    between atoms: _305  and  _307
REMARK  129  A    between atoms: _307  and  _308
REMARK  130  A    between atoms: _307  and  _310
REMARK  131  A    between atoms: _310  and  _311
REMARK  132  A    between atoms: _311  and  _312
REMARK  133  A    between atoms: _314  and  _316
REMARK  134  A    between atoms: _316  and  _317
REMARK  135  A    between atoms: _316  and  _319
REMARK  136  A    between atoms: _321  and  _323
REMARK  137  A    between atoms: _323  and  _324
REMARK  138  A    between atoms: _327  and  _329
REMARK  139  A    between atoms: _329  and  _330
REMARK  140  A    between atoms: _332  and  _334
REMARK  141  A    between atoms: _334  and  _335
REMARK  142  A    between atoms: _334  and  _337
REMARK  143  A    between atoms: _337  and  _338
REMARK  144  A    between atoms: _343  and  _344
REMARK  145  A    between atoms: _346  and  _348
REMARK  146  A    between atoms: _348  and  _349
REMARK  147  A    between atoms: _348  and  _351
REMARK  148  A    between atoms: _351  and  _352
REMARK  149  A    between atoms: _352  and  _353
REMARK  150  A    between atoms: _356  and  _358
REMARK  151  A    between atoms: _358  and  _359
REMARK  152  A    between atoms: _358  and  _361
REMARK  153  A    between atoms: _361  and  _362
REMARK  154  A    between atoms: _365  and  _367
REMARK  155  A    between atoms: _367  and  _368
REMARK  156  A    between atoms: _371  and  _373
REMARK  157  A    between atoms: _373  and  _374
REMARK  158  A    between atoms: _373  and  _376
REMARK  159  A    between atoms: _376  and  _377
REMARK  160  A    between atoms: _377  and  _500
REMARK  161  A    between atoms: _378  and  _380
REMARK  162  A    between atoms: _380  and  _381
REMARK  163  A    between atoms: _380  and  _383
REMARK  164  A    between atoms: _383  and  _384
REMARK  165  A    between atoms: _384  and  _385
REMARK  166  A    between atoms: _390  and  _392
REMARK  167  A    between atoms: _392  and  _393
REMARK  168  A    between atoms: _395  and  _397
REMARK  169  A    between atoms: _397  and  _398
REMARK  170  A    between atoms: _397  and  _400
REMARK  171  A    between atoms: _400  and  _401
REMARK  172  A    between atoms: _404  and  _406
REMARK  173  A    between atoms: _406  and  _407
REMARK  174  A    between atoms: _406  and  _409
REMARK  175  A    between atoms: _409  and  _410
REMARK  176  A    between atoms: _412  and  _414
REMARK  177  A    between atoms: _414  and  _415
REMARK  178  A    between atoms: _417  and  _419
REMARK  179  A    between atoms: _419  and  _420
REMARK  180  A    between atoms: _422  and  _424
REMARK  181  A    between atoms: _424  and  _425
REMARK  182  A    between atoms: _424  and  _427
REMARK  183  A    between atoms: _427  and  _428
REMARK  184  A    between atoms: _433  and  _435
REMARK  185  A    between atoms: _435  and  _436
REMARK  186  A    between atoms: _435  and  _438
REMARK  187  A    between atoms: _438  and  _439
REMARK  188  A    between atoms: _442  and  _444
REMARK  189  A    between atoms: _444  and  _445
REMARK  190  A    between atoms: _444  and  _447
REMARK  191  A    between atoms: _450  and  _452
REMARK  192  A    between atoms: _452  and  _453
REMARK  193  A    between atoms: _452  and  _455
REMARK  194  A    between atoms: _455  and  _456
REMARK  195  A    between atoms: _458  and  _460
REMARK  196  A    between atoms: _460  and  _461
REMARK  197  A    between atoms: _460  and  _463
REMARK  198  A    between atoms: _463  and  _464
REMARK  199  A    between atoms: _474  and  _476
REMARK  200  A    between atoms: _476  and  _477
REMARK  201  A    between atoms: _479  and  _481
REMARK  202  A    between atoms: _481  and  _482
REMARK  203  A    between atoms: _481  and  _484
REMARK  204  A    between atoms: _484  and  _485
REMARK  205  A    between atoms: _485  and  _486
REMARK  206  A    between atoms: _489  and  _491
REMARK  207  A    between atoms: _491  and  _492
REMARK  208  A    between atoms: _494  and  _496
REMARK  209  A    between atoms: _496  and  _497
REMARK  210  A    between atoms: _496  and  _499
REMARK  211  A    between atoms: _499  and  _500
REMARK  212  A    between atoms: _501  and  _503
REMARK  213  A    between atoms: _503  and  _504
REMARK  214  A    between atoms: _507  and  _509
REMARK  215  A    between atoms: _509  and  _510
REMARK  216  A    between atoms: _509  and  _512
REMARK  217  A    between atoms: _512  and  _513
REMARK  218  A    between atoms: _513  and  _514
REMARK  219  A    between atoms: _514  and  _515
REMARK  220  A    between atoms: _524  and  _526
REMARK  221  A    between atoms: _526  and  _527
REMARK  222  A    between atoms: _526  and  _529
REMARK  223  A    between atoms: _529  and  _530
REMARK  224  A    between atoms: _530  and  _531
REMARK  225  A    between atoms: _531  and  _532
REMARK  226  A    between atoms: _532  and  _533
REMARK  227  A    between atoms: _537  and  _539
REMARK  228  A    between atoms: _539  and  _540
REMARK  229  A    between atoms: _539  and  _542
REMARK  230  A    between atoms: _542  and  _543
REMARK  231  A    between atoms: _548  and  _549
REMARK  232  A    between atoms: _551  and  _553
REMARK  233  A    between atoms: _553  and  _554
REMARK  234  A    between atoms: _556  and  _558
REMARK  235  A    between atoms: _558  and  _559
REMARK  236  A    between atoms: _558  and  _561
REMARK  237  A    between atoms: _561  and  _562
REMARK  238  A    between atoms: _565  and  _567
REMARK  239  A    between atoms: _567  and  _568
REMARK  240  A    between atoms: _567  and  _570
REMARK  241  A    between atoms: _570  and  _571
REMARK  242  A    between atoms: _576  and  _577
REMARK                            x       y       z     vdW  Elec       q    Type
REMARK                         _______ _______ _______ _____ _____    ______ ____
ROOT
ATOM      1  CA  MET A   1      19.888  34.964  57.450  0.00  0.00    +0.134 C 
ENDROOT
BRANCH   1   2
ATOM      2  N   MET A   1      20.724  35.446  58.547  0.00  0.00    -0.239 NA
ATOM      3  H   MET A   1      20.872  36.469  58.663  0.00  0.00    +0.142 HD
ENDBRANCH   1   2
BRANCH   1   4
ATOM      4  C   MET A   1      20.355  35.527  56.112  0.00  0.00    +0.224 C 
ATOM      5  O   MET A   1      21.098  36.510  56.065  0.00  0.00    -0.287 OA
ENDBRANCH   1   4
BRANCH   1   6
ATOM      6  CB  MET A   1      18.438  35.405  57.669  0.00  0.00    +0.037 C 
BRANCH   6   7
ATOM      7  CG  MET A   1      17.879  35.129  59.045  0.00  0.00    +0.059 C 
BRANCH   7   8
ATOM      8  SD  MET A   1      16.207  35.829  59.231  0.00  0.00    -0.139 S 
ATOM      9  CE  MET A   1      15.890  35.470  60.946  0.00  0.00    +0.069 C 
ENDBRANCH   7   8
ENDBRANCH   6   7
ENDBRANCH   1   6
TORSDOF 5
REMARK  Name = ../refined-set-2016/1z6e/1z6e_pocket.pdb
REMARK  242 active torsions:
REMARK  status: ('A' for Active; 'I' for Inactive)
REMARK    1  A    between atoms: _1  and  _5
REMARK    2  A    between atoms: _5  and  _6
REMARK    3  A    between atoms: _5  and  _8
REMARK    4  A    between atoms: _8  and  _9
REMARK    5  A    between atoms: _12  and  _14
REMARK    6  A    between atoms: _14  and  _15
REMARK    7  A    between atoms: _14  and  _17
REMARK    8  A    between atoms: _20  and  _22
REMARK    9  A    between atoms: _22  and  _23
REMARK   10  A    between atoms: _22  and  _25
REMARK   11  A    between atoms: _25  and  _26
REMARK   12  A    between atoms: _31  and  _33
REMARK   13  A    between atoms: _33  and  _34
REMARK   14  A    between atoms: _33  and  _36
REMARK   15  A    between atoms: _38  and  _40
REMARK   16  A    between atoms: _40  and  _41
REMARK   17  A    between atoms: _40  and  _43
REMARK   18  A    between atoms: _43  and  _44
REMARK   19  A    between atoms: _44  and  _45
REMARK   20  A    between atoms: _50  and  _52
REMARK   21  A    between atoms: _52  and  _53
REMARK   22  A    between atoms: _52  and  _55
REMARK   23  A    between atoms: _55  and  _56
REMARK   24  A    between atoms: _62  and  _64
REMARK   25  A    between atoms: _64  and  _65
REMARK   26  A    between atoms: _64  and  _67
REMARK   27  A    between atoms: _67  and  _68
REMARK   28  A    between atoms: _71  and  _73
REMARK   29  A    between atoms: _73  and  _74
REMARK   30  A    between atoms: _73  and  _76
REMARK   31  A    between atoms: _76  and  _77
REMARK   32  A    between atoms: _77  and  _78
REMARK   33  A    between atoms: _78  and  _79
REMARK   34  A    between atoms: _79  and  _80
REMARK   35  A    between atoms: _84  and  _86
REMARK   36  A    between atoms: _86  and  _87
REMARK   37  A    between atoms: _86  and  _89
REMARK   38  A    between atoms: _89  and  _90
REMARK   39  A    between atoms: _90  and  _91
REMARK   40  A    between atoms: _94  and  _96
REMARK   41  A    between atoms: _96  and  _97
REMARK   42  A    between atoms: _96  and  _99
REMARK   43  A    between atoms: _99  and  _100
REMARK   44  A    between atoms: _103  and  _105
REMARK   45  A    between atoms: _105  and  _106
REMARK   46  A    between atoms: _105  and  _108
REMARK   47  A    between atoms: _108  and  _109
REMARK   48  A    between atoms: _114  and  _115
REMARK   49  A    between atoms: _117  and  _119
REMARK   50  A    between atoms: _119  and  _120
REMARK   51  A    between atoms: _119  and  _122
REMARK   52  A    between atoms: _122  and  _123
REMARK   53  A    between atoms: _126  and  _128
REMARK   54  A    between atoms: _128  and  _129
REMARK   55  A    between atoms: _128  and  _131
REMARK   56  A    between atoms: _131  and  _132
REMARK   57  A    between atoms: _135  and  _137
REMARK   58  A    between atoms: _137  and  _138
REMARK   59  A    between atoms: _137  and  _140
REMARK   60  A    between atoms: _143  and  _145
REMARK   61  A    between atoms: _145  and  _146
REMARK   62  A    between atoms: _148  and  _150
REMARK   63  A    between atoms: _150  and  _151
REMARK   64  A    between atoms: _150  and  _153
REMARK   65  A    between atoms: _153  and  _154
REMARK   66  A    between atoms: _154  and  _155
REMARK   67  A    between atoms: _155  and  _156
REMARK   68  A    between atoms: _165  and  _167
REMARK   69  A    between atoms: _167  and  _168
REMARK   70  A    between atoms: _167  and  _170
REMARK   71  A    between atoms: _170  and  _171
REMARK   72  A    between atoms: _176  and  _178
REMARK   73  A    between atoms: _178  and  _179
REMARK   74  A    between atoms: _178  and  _181
REMARK   75  A    between atoms: _181  and  _182
REMARK   76  A    between atoms: _182  and  _183
REMARK   77  A    between atoms: _186  and  _188
REMARK   78  A    between atoms: _188  and  _189
REMARK   79  A    between atoms: _188  and  _191
REMARK   80  A    between atoms: _191  and  _192
REMARK   81  A    between atoms: _192  and  _193
REMARK   82  A    between atoms: _193  and  _194
REMARK   83  A    between atoms: _194  and  _195
REMARK   84  A    between atoms: _199  and  _201
REMARK   85  A    between atoms: _201  and  _202
REMARK   86  A    between atoms: _204  and  _206
REMARK   87  A    between atoms: _206  and  _207
REMARK   88  A    between atoms: _206  and  _209
REMARK   89  A    between atoms: _209  and  _210
REMARK   90  A    between atoms: _210  and  _211
REMARK   91  A    between atoms: _211  and  _212
REMARK   92  A    between atoms: _221  and  _223
REMARK   93  A    between atoms: _223  and  _224
REMARK   94  A    between atoms: _223  and  _226
REMARK   95  A    between atoms: _226  and  _227
REMARK   96  A    between atoms: _227  and  _228
REMARK   97  A    between atoms: _233  and  _235
REMARK   98  A    between atoms: _235  and  _236
REMARK   99  A    between atoms: _235  and  _238
REMARK  100  A    between atoms: _238  and  _239
REMARK  101  A    between atoms: _242  and  _244
REMARK  102  A    between atoms: _244  and  _245
REMARK  103  A    between atoms: _244  and  _247
REMARK  104  A    between atoms: _250  and  _252
REMARK  105  A    between atoms: _252  and  _253
REMARK  106  A    between atoms: _252  and  _255
REMARK  107  A    between atoms: _255  and  _256
REMARK  108  A    between atoms: _258  and  _260
REMARK  109  A    between atoms: _260  and  _261
REMARK  110  A    between atoms: _260  and  _263
REMARK  111  A    between atoms: _263  and  _264
REMARK  112  A    between atoms: _266  and  _268
REMARK  113  A    between atoms: _268  and  _269
REMARK  114  A    between atoms: _268  and  _271
REMARK  115  A    between atoms: _271  and  _272
REMARK  116  A    between atoms: _278  and  _280
REMARK  117  A    between atoms: _280  and  _281
REMARK  118  A    between atoms: _280  and  _283
REMARK  119  A    between atoms: _283  and  _284
REMARK  120  A    between atoms: _287  and  _289
REMARK  121  A    between atoms: _289  and  _290
REMARK  122  A    between atoms: _289  and  _292
REMARK  123  A    between atoms: _292  and  _293
REMARK  124  A    between atoms: _296  and  _298
REMARK  125  A    between atoms: _298  and  _299
REMARK  126  A    between atoms: _298  and  _301
REMARK  127  A    between atoms: _301  and  _302
REMARK  128  A    between atoms: _305  and  _307
REMARK  129  A    between atoms: _307  and  _308
REMARK  130  A    between atoms: _307  and  _310
REMARK  131  A    between atoms: _310  and  _311
REMARK  132  A    between atoms: _311  and  _312
REMARK  133  A    between atoms: _314  and  _316
REMARK  134  A    between atoms: _316  and  _317
REMARK  135  A    between atoms: _316  and  _319
REMARK  136  A    between atoms: _321  and  _323
REMARK  137  A    between atoms: _323  and  _324
REMARK  138  A    between atoms: _327  and  _329
REMARK  139  A    between atoms: _329  and  _330
REMARK  140  A    between atoms: _332  and  _334
REMARK  141  A    between atoms: _334  and  _335
REMARK  142  A    between atoms: _334  and  _337
REMARK  143  A    between atoms: _337  and  _338
REMARK  144  A    between atoms: _343  and  _344
REMARK  145  A    between atoms: _346  and  _348
REMARK  146  A    between atoms: _348  and  _349
REMARK  147  A    between atoms: _348  and  _351
REMARK  148  A    between atoms: _351  and  _352
REMARK  149  A    between atoms: _352  and  _353
REMARK  150  A    between atoms: _356  and  _358
REMARK  151  A    between atoms: _358  and  _359
REMARK  152  A    between atoms: _358  and  _361
REMARK  153  A    between atoms: _361  and  _362
REMARK  154  A    between atoms: _365  and  _367
REMARK  155  A    between atoms: _367  and  _368
REMARK  156  A    between atoms: _371  and  _373
REMARK  157  A    between atoms: _373  and  _374
REMARK  158  A    between atoms: _373  and  _376
REMARK  159  A    between atoms: _376  and  _377
REMARK  160  A    between atoms: _377  and  _500
REMARK  161  A    between atoms: _378  and  _380
REMARK  162  A    between atoms: _380  and  _381
REMARK  163  A    between atoms: _380  and  _383
REMARK  164  A    between atoms: _383  and  _384
REMARK  165  A    between atoms: _384  and  _385
REMARK  166  A    between atoms: _390  and  _392
REMARK  167  A    between atoms: _392  and  _393
REMARK  168  A    between atoms: _395  and  _397
REMARK  169  A    between atoms: _397  and  _398
REMARK  170  A    between atoms: _397  and  _400
REMARK  171  A    between atoms: _400  and  _401
REMARK  172  A    between atoms: _404  and  _406
REMARK  173  A    between atoms: _406  and  _407
REMARK  174  A    between atoms: _406  and  _409
REMARK  175  A    between atoms: _409  and  _410
REMARK  176  A    between atoms: _412  and  _414
REMARK  177  A    between atoms: _414  and  _415
REMARK  178  A    between atoms: _417  and  _419
REMARK  179  A    between atoms: _419  and  _420
REMARK  180  A    between atoms: _422  and  _424
REMARK  181  A    between atoms: _424  and  _425
REMARK  182  A    between atoms: _424  and  _427
REMARK  183  A    between atoms: _427  and  _428
REMARK  184  A    between atoms: _433  and  _435
REMARK  185  A    between atoms: _435  and  _436
REMARK  186  A    between atoms: _435  and  _438
REMARK  187  A    between atoms: _438  and  _439
REMARK  188  A    between atoms: _442  and  _444
REMARK  189  A    between atoms: _444  and  _445
REMARK  190  A    between atoms: _444  and  _447
REMARK  191  A    between atoms: _450  and  _452
REMARK  192  A    between atoms: _452  and  _453
REMARK  193  A    between atoms: _452  and  _455
REMARK  194  A    between atoms: _455  and  _456
REMARK  195  A    between atoms: _458  and  _460
REMARK  196  A    between atoms: _460  and  _461
REMARK  197  A    between atoms: _460  and  _463
REMARK  198  A    between atoms: _463  and  _464
REMARK  199  A    between atoms: _474  and  _476
REMARK  200  A    between atoms: _476  and  _477
REMARK  201  A    between atoms: _479  and  _481
REMARK  202  A    between atoms: _481  and  _482
REMARK  203  A    between atoms: _481  and  _484
REMARK  204  A    between atoms: _484  and  _485
REMARK  205  A    between atoms: _485  and  _486
REMARK  206  A    between atoms: _489  and  _491
REMARK  207  A    between atoms: _491  and  _492
REMARK  208  A    between atoms: _494  and  _496
REMARK  209  A    between atoms: _496  and  _497
REMARK  210  A    between atoms: _496  and  _499
REMARK  211  A    between atoms: _499  and  _500
REMARK  212  A    between atoms: _501  and  _503
REMARK  213  A    between atoms: _503  and  _504
REMARK  214  A    between atoms: _507  and  _509
REMARK  215  A    between atoms: _509  and  _510
REMARK  216  A    between atoms: _509  and  _512
REMARK  217  A    between atoms: _512  and  _513
REMARK  218  A    between atoms: _513  and  _514
REMARK  219  A    between atoms: _514  and  _515
REMARK  220  A    between atoms: _524  and  _526
REMARK  221  A    between atoms: _526  and  _527
REMARK  222  A    between atoms: _526  and  _529
REMARK  223  A    between atoms: _529  and  _530
REMARK  224  A    between atoms: _530  and  _531
REMARK  225  A    between atoms: _531  and  _532
REMARK  226  A    between atoms: _532  and  _533
REMARK  227  A    between atoms: _537  and  _539
REMARK  228  A    between atoms: _539  and  _540
REMARK  229  A    between atoms: _539  and  _542
REMARK  230  A    between atoms: _542  and  _543
REMARK  231  A    between atoms: _548  and  _549
REMARK  232  A    between atoms: _551  and  _553
REMARK  233  A    between atoms: _553  and  _554
REMARK  234  A    between atoms: _556  and  _558
REMARK  235  A    between atoms: _558  and  _559
REMARK  236  A    between atoms: _558  and  _561
REMARK  237  A    between atoms: _561  and  _562
REMARK  238  A    between atoms: _565  and  _567
REMARK  239  A    between atoms: _567  and  _568
REMARK  240  A    between atoms: _567  and  _570
REMARK  241  A    between atoms: _570  and  _571
REMARK  242  A    between atoms: _576  and  _577
REMARK                            x       y       z     vdW  Elec       q    Type
REMARK                         _______ _______ _______ _____ _____    ______ ____
ROOT
ATOM      1  CA  GLY A   3      15.369  32.216  45.010  0.00  0.00    +0.176 C 
ENDROOT
BRANCH   1   4
ATOM      2  C   ALA A   2      16.602  32.590  47.023  0.00  0.00    +0.241 C 
ATOM      3  O   ALA A   2      15.618  32.301  47.693  0.00  0.00    -0.273 OA
ATOM      4  N   GLY A   3      16.589  32.579  45.700  0.00  0.00    -0.295 N 
ATOM      5  H   GLY A   3      17.444  32.828  45.163  0.00  0.00    +0.150 HD
BRANCH   2   6
ATOM      6  CA  ALA A   2      17.902  32.982  47.694  0.00  0.00    +0.149 C 
ATOM      7  CB  ALA A   2      18.724  31.742  48.029  0.00  0.00    +0.031 C 
BRANCH   6  10
ATOM      8  C   CYS A   1      18.387  34.582  49.465  0.00  0.00    +0.239 C 
ATOM      9  O   CYS A   1      19.501  34.835  49.013  0.00  0.00    -0.274 OA
ATOM     10  N   ALA A   2      17.560  33.705  48.908  0.00  0.00    -0.297 N 
ATOM     11  H   ALA A   2      16.637  33.530  49.355  0.00  0.00    +0.150 HD
BRANCH   8  12
ATOM     12  CA  CYS A   1      17.870  35.270  50.719  0.00  0.00    +0.156 C 
BRANCH  12  13
ATOM     13  N   CYS A   1      18.925  35.604  51.664  0.00  0.00    -0.237 NA
ATOM     14  H   CYS A   1      19.536  36.423  51.470  0.00  0.00    +0.142 HD
ENDBRANCH  12  13
BRANCH  12  15
ATOM     15  CB  CYS A   1      17.112  36.539  50.328  0.00  0.00    +0.095 C 
ATOM     16  SG  CYS A   1      16.332  37.393  51.730  0.00  0.00    -0.080 S 
ENDBRANCH  12  15
ENDBRANCH   8  12
ENDBRANCH   6  10
ENDBRANCH   2   6
ENDBRANCH   1   4
BRANCH   1  17
ATOM     17  C   GLY A   3      15.063  33.157  43.860  0.00  0.00    +0.243 C 
ATOM     18  N   TYR A   4      13.785  33.294  43.525  0.00  0.00    -0.298 N 
ATOM     19  H   TYR A   4      13.057  32.781  44.062  0.00  0.00    +0.150 HD
ATOM     20  O   GLY A   3      15.967  33.763  43.288  0.00  0.00    -0.273 OA
BRANCH  18  21
ATOM     21  CA  TYR A   4      13.387  34.151  42.417  0.00  0.00    +0.141 C 
BRANCH  21  22
ATOM     22  C   TYR A   4      12.310  35.148  42.813  0.00  0.00    +0.227 C 
ATOM     23  O   TYR A   4      11.518  34.894  43.719  0.00  0.00    -0.286 OA
ENDBRANCH  21  22
BRANCH  21  24
ATOM     24  CB  TYR A   4      12.862  33.290  41.270  0.00  0.00    +0.054 C 
BRANCH  24  25
ATOM     25  CG  TYR A   4      13.871  32.336  40.677  0.00  0.00    -0.020 A 
ATOM     26  CD2 TYR A   4      13.950  31.011  41.117  0.00  0.00    -0.001 A 
ATOM     27  CE2 TYR A   4      14.866  30.115  40.555  0.00  0.00    +0.036 A 
ATOM     28  CZ  TYR A   4      15.714  30.547  39.544  0.00  0.00    +0.134 A 
ATOM     29  CE1 TYR A   4      15.656  31.861  39.091  0.00  0.00    +0.036 A 
ATOM     30  CD1 TYR A   4      14.736  32.748  39.660  0.00  0.00    -0.001 A 
BRANCH  28  31
ATOM     31  OH  TYR A   4      16.618  29.670  38.992  0.00  0.00    -0.506 OA
ATOM     32  HH  TYR A   4      16.132  28.906  38.591  0.00  0.00    +0.292 HD
ENDBRANCH  28  31
ENDBRANCH  24  25
ENDBRANCH  21  24
ENDBRANCH  18  21
ENDBRANCH   1  17
TORSDOF 12
REMARK  Name = ../refined-set-2016/1z6e/1z6e_pocket.pdb
REMARK  242 active torsions:
REMARK  status: ('A' for Active; 'I' for Inactive)
REMARK    1  A    between atoms: _1  and  _5
REMARK    2  A    between atoms: _5  and  _6
REMARK    3  A    between atoms: _5  and  _8
REMARK    4  A    between atoms: _8  and  _9
REMARK    5  A    between atoms: _12  and  _14
REMARK    6  A    between atoms: _14  and  _15
REMARK    7  A    between atoms: _14  and  _17
REMARK    8  A    between atoms: _20  and  _22
REMARK    9  A    between atoms: _22  and  _23
REMARK   10  A    between atoms: _22  and  _25
REMARK   11  A    between atoms: _25  and  _26
REMARK   12  A    between atoms: _31  and  _33
REMARK   13  A    between atoms: _33  and  _34
REMARK   14  A    between atoms: _33  and  _36
REMARK   15  A    between atoms: _38  and  _40
REMARK   16  A    between atoms: _40  and  _41
REMARK   17  A    between atoms: _40  and  _43
REMARK   18  A    between atoms: _43  and  _44
REMARK   19  A    between atoms: _44  and  _45
REMARK   20  A    between atoms: _50  and  _52
REMARK   21  A    between atoms: _52  and  _53
REMARK   22  A    between atoms: _52  and  _55
REMARK   23  A    between atoms: _55  and  _56
REMARK   24  A    between atoms: _62  and  _64
REMARK   25  A    between atoms: _64  and  _65
REMARK   26  A    between atoms: _64  and  _67
REMARK   27  A    between atoms: _67  and  _68
REMARK   28  A    between atoms: _71  and  _73
REMARK   29  A    between atoms: _73  and  _74
REMARK   30  A    between atoms: _73  and  _76
REMARK   31  A    between atoms: _76  and  _77
REMARK   32  A    between atoms: _77  and  _78
REMARK   33  A    between atoms: _78  and  _79
REMARK   34  A    between atoms: _79  and  _80
REMARK   35  A    between atoms: _84  and  _86
REMARK   36  A    between atoms: _86  and  _87
REMARK   37  A    between atoms: _86  and  _89
REMARK   38  A    between atoms: _89  and  _90
REMARK   39  A    between atoms: _90  and  _91
REMARK   40  A    between atoms: _94  and  _96
REMARK   41  A    between atoms: _96  and  _97
REMARK   42  A    between atoms: _96  and  _99
REMARK   43  A    between atoms: _99  and  _100
REMARK   44  A    between atoms: _103  and  _105
REMARK   45  A    between atoms: _105  and  _106
REMARK   46  A    between atoms: _105  and  _108
REMARK   47  A    between atoms: _108  and  _109
REMARK   48  A    between atoms: _114  and  _115
REMARK   49  A    between atoms: _117  and  _119
REMARK   50  A    between atoms: _119  and  _120
REMARK   51  A    between atoms: _119  and  _122
REMARK   52  A    between atoms: _122  and  _123
REMARK   53  A    between atoms: _126  and  _128
REMARK   54  A    between atoms: _128  and  _129
REMARK   55  A    between atoms: _128  and  _131
REMARK   56  A    between atoms: _131  and  _132
REMARK   57  A    between atoms: _135  and  _137
REMARK   58  A    between atoms: _137  and  _138
REMARK   59  A    between atoms: _137  and  _140
REMARK   60  A    between atoms: _143  and  _145
REMARK   61  A    between atoms: _145  and  _146
REMARK   62  A    between atoms: _148  and  _150
REMARK   63  A    between atoms: _150  and  _151
REMARK   64  A    between atoms: _150  and  _153
REMARK   65  A    between atoms: _153  and  _154
REMARK   66  A    between atoms: _154  and  _155
REMARK   67  A    between atoms: _155  and  _156
REMARK   68  A    between atoms: _165  and  _167
REMARK   69  A    between atoms: _167  and  _168
REMARK   70  A    between atoms: _167  and  _170
REMARK   71  A    between atoms: _170  and  _171
REMARK   72  A    between atoms: _176  and  _178
REMARK   73  A    between atoms: _178  and  _179
REMARK   74  A    between atoms: _178  and  _181
REMARK   75  A    between atoms: _181  and  _182
REMARK   76  A    between atoms: _182  and  _183
REMARK   77  A    between atoms: _186  and  _188
REMARK   78  A    between atoms: _188  and  _189
REMARK   79  A    between atoms: _188  and  _191
REMARK   80  A    between atoms: _191  and  _192
REMARK   81  A    between atoms: _192  and  _193
REMARK   82  A    between atoms: _193  and  _194
REMARK   83  A    between atoms: _194  and  _195
REMARK   84  A    between atoms: _199  and  _201
REMARK   85  A    between atoms: _201  and  _202
REMARK   86  A    between atoms: _204  and  _206
REMARK   87  A    between atoms: _206  and  _207
REMARK   88  A    between atoms: _206  and  _209
REMARK   89  A    between atoms: _209  and  _210
REMARK   90  A    between atoms: _210  and  _211
REMARK   91  A    between atoms: _211  and  _212
REMARK   92  A    between atoms: _221  and  _223
REMARK   93  A    between atoms: _223  and  _224
REMARK   94  A    between atoms: _223  and  _226
REMARK   95  A    between atoms: _226  and  _227
REMARK   96  A    between atoms: _227  and  _228
REMARK   97  A    between atoms: _233  and  _235
REMARK   98  A    between atoms: _235  and  _236
REMARK   99  A    between atoms: _235  and  _238
REMARK  100  A    between atoms: _238  and  _239
REMARK  101  A    between atoms: _242  and  _244
REMARK  102  A    between atoms: _244  and  _245
REMARK  103  A    between atoms: _244  and  _247
REMARK  104  A    between atoms: _250  and  _252
REMARK  105  A    between atoms: _252  and  _253
REMARK  106  A    between atoms: _252  and  _255
REMARK  107  A    between atoms: _255  and  _256
REMARK  108  A    between atoms: _258  and  _260
REMARK  109  A    between atoms: _260  and  _261
REMARK  110  A    between atoms: _260  and  _263
REMARK  111  A    between atoms: _263  and  _264
REMARK  112  A    between atoms: _266  and  _268
REMARK  113  A    between atoms: _268  and  _269
REMARK  114  A    between atoms: _268  and  _271
REMARK  115  A    between atoms: _271  and  _272
REMARK  116  A    between atoms: _278  and  _280
REMARK  117  A    between atoms: _280  and  _281
REMARK  118  A    between atoms: _280  and  _283
REMARK  119  A    between atoms: _283  and  _284
REMARK  120  A    between atoms: _287  and  _289
REMARK  121  A    between atoms: _289  and  _290
REMARK  122  A    between atoms: _289  and  _292
REMARK  123  A    between atoms: _292  and  _293
REMARK  124  A    between atoms: _296  and  _298
REMARK  125  A    between atoms: _298  and  _299
REMARK  126  A    between atoms: _298  and  _301
REMARK  127  A    between atoms: _301  and  _302
REMARK  128  A    between atoms: _305  and  _307
REMARK  129  A    between atoms: _307  and  _308
REMARK  130  A    between atoms: _307  and  _310
REMARK  131  A    between atoms: _310  and  _311
REMARK  132  A    between atoms: _311  and  _312
REMARK  133  A    between atoms: _314  and  _316
REMARK  134  A    between atoms: _316  and  _317
REMARK  135  A    between atoms: _316  and  _319
REMARK  136  A    between atoms: _321  and  _323
REMARK  137  A    between atoms: _323  and  _324
REMARK  138  A    between atoms: _327  and  _329
REMARK  139  A    between atoms: _329  and  _330
REMARK  140  A    between atoms: _332  and  _334
REMARK  141  A    between atoms: _334  and  _335
REMARK  142  A    between atoms: _334  and  _337
REMARK  143  A    between atoms: _337  and  _338
REMARK  144  A    between atoms: _343  and  _344
REMARK  145  A    between atoms: _346  and  _348
REMARK  146  A    between atoms: _348  and  _349
REMARK  147  A    between atoms: _348  and  _351
REMARK  148  A    between atoms: _351  and  _352
REMARK  149  A    between atoms: _352  and  _353
REMARK  150  A    between atoms: _356  and  _358
REMARK  151  A    between atoms: _358  and  _359
REMARK  152  A    between atoms: _358  and  _361
REMARK  153  A    between atoms: _361  and  _362
REMARK  154  A    between atoms: _365  and  _367
REMARK  155  A    between atoms: _367  and  _368
REMARK  156  A    between atoms: _371  and  _373
REMARK  157  A    between atoms: _373  and  _374
REMARK  158  A    between atoms: _373  and  _376
REMARK  159  A    between atoms: _376  and  _377
REMARK  160  A    between atoms: _377  and  _500
REMARK  161  A    between atoms: _378  and  _380
REMARK  162  A    between atoms: _380  and  _381
REMARK  163  A    between atoms: _380  and  _383
REMARK  164  A    between atoms: _383  and  _384
REMARK  165  A    between atoms: _384  and  _385
REMARK  166  A    between atoms: _390  and  _392
REMARK  167  A    between atoms: _392  and  _393
REMARK  168  A    between atoms: _395  and  _397
REMARK  169  A    between atoms: _397  and  _398
REMARK  170  A    between atoms: _397  and  _400
REMARK  171  A    between atoms: _400  and  _401
REMARK  172  A    between atoms: _404  and  _406
REMARK  173  A    between atoms: _406  and  _407
REMARK  174  A    between atoms: _406  and  _409
REMARK  175  A    between atoms: _409  and  _410
REMARK  176  A    between atoms: _412  and  _414
REMARK  177  A    between atoms: _414  and  _415
REMARK  178  A    between atoms: _417  and  _419
REMARK  179  A    between atoms: _419  and  _420
REMARK  180  A    between atoms: _422  and  _424
REMARK  181  A    between atoms: _424  and  _425
REMARK  182  A    between atoms: _424  and  _427
REMARK  183  A    between atoms: _427  and  _428
REMARK  184  A    between atoms: _433  and  _435
REMARK  185  A    between atoms: _435  and  _436
REMARK  186  A    between atoms: _435  and  _438
REMARK  187  A    between atoms: _438  and  _439
REMARK  188  A    between atoms: _442  and  _444
REMARK  189  A    between atoms: _444  and  _445
REMARK  190  A    between atoms: _444  and  _447
REMARK  191  A    between atoms: _450  and  _452
REMARK  192  A    between atoms: _452  and  _453
REMARK  193  A    between atoms: _452  and  _455
REMARK  194  A    between atoms: _455  and  _456
REMARK  195  A    between atoms: _458  and  _460
REMARK  196  A    between atoms: _460  and  _461
REMARK  197  A    between atoms: _460  and  _463
REMARK  198  A    between atoms: _463  and  _464
REMARK  199  A    between atoms: _474  and  _476
REMARK  200  A    between atoms: _476  and  _477
REMARK  201  A    between atoms: _479  and  _481
REMARK  202  A    between atoms: _481  and  _482
REMARK  203  A    between atoms: _481  and  _484
REMARK  204  A    between atoms: _484  and  _485
REMARK  205  A    between atoms: _485  and  _486
REMARK  206  A    between atoms: _489  and  _491
REMARK  207  A    between atoms: _491  and  _492
REMARK  208  A    between atoms: _494  and  _496
REMARK  209  A    between atoms: _496  and  _497
REMARK  210  A    between atoms: _496  and  _499
REMARK  211  A    between atoms: _499  and  _500
REMARK  212  A    between atoms: _501  and  _503
REMARK  213  A    between atoms: _503  and  _504
REMARK  214  A    between atoms: _507  and  _509
REMARK  215  A    between atoms: _509  and  _510
REMARK  216  A    between atoms: _509  and  _512
REMARK  217  A    between atoms: _512  and  _513
REMARK  218  A    between atoms: _513  and  _514
REMARK  219  A    between atoms: _514  and  _515
REMARK  220  A    between atoms: _524  and  _526
REMARK  221  A    between atoms: _526  and  _527
REMARK  222  A    between atoms: _526  and  _529
REMARK  223  A    between atoms: _529  and  _530
REMARK  224  A    between atoms: _530  and  _531
REMARK  225  A    between atoms: _531  and  _532
REMARK  226  A    between atoms: _532  and  _533
REMARK  227  A    between atoms: _537  and  _539
REMARK  228  A    between atoms: _539  and  _540
REMARK  229  A    between atoms: _539  and  _542
REMARK  230  A    between atoms: _542  and  _543
REMARK  231  A    between atoms: _548  and  _549
REMARK  232  A    between atoms: _551  and  _553
REMARK  233  A    between atoms: _553  and  _554
REMARK  234  A    between atoms: _556  and  _558
REMARK  235  A    between atoms: _558  and  _559
REMARK  236  A    between atoms: _558  and  _561
REMARK  237  A    between atoms: _561  and  _562
REMARK  238  A    between atoms: _565  and  _567
REMARK  239  A    between atoms: _567  and  _568
REMARK  240  A    between atoms: _567  and  _570
REMARK  241  A    between atoms: _570  and  _571
REMARK  242  A    between atoms: _576  and  _577
REMARK                            x       y       z     vdW  Elec       q    Type
REMARK                         _______ _______ _______ _____ _____    ______ ____
ROOT
ATOM      1  CA  CYS A   8       6.515  29.467  48.406  0.00  0.00    +0.160 C 
ENDROOT
BRANCH   1   2
ATOM      2  N   CYS A   8       5.494  30.088  49.229  0.00  0.00    -0.296 N 
ATOM      3  C   GLY A   7       5.778  30.486  50.460  0.00  0.00    +0.243 C 
ATOM      4  O   GLY A   7       6.908  30.385  50.940  0.00  0.00    -0.273 OA
ATOM      5  H   CYS A   8       4.535  30.221  48.850  0.00  0.00    +0.150 HD
BRANCH   3   6
ATOM      6  CA  GLY A   7       4.653  31.100  51.269  0.00  0.00    +0.176 C 
BRANCH   6   7
ATOM      7  N   GLY A   7       5.276  31.884  52.312  0.00  0.00    -0.295 N 
ATOM      8  H   GLY A   7       5.440  31.464  53.249  0.00  0.00    +0.150 HD
ATOM      9  C   GLU A   6       5.639  33.138  52.075  0.00  0.00    +0.241 C 
ATOM     10  O   GLU A   6       5.446  33.696  50.998  0.00  0.00    -0.273 OA
BRANCH   9  11
ATOM     11  CA  GLU A   6       6.330  33.853  53.228  0.00  0.00    +0.149 C 
BRANCH  11  12
ATOM     12  N   GLU A   6       7.735  33.470  53.185  0.00  0.00    -0.297 N 
ATOM     13  C   GLY A   5       8.143  32.323  53.720  0.00  0.00    +0.243 C 
ATOM     14  O   GLY A   5       7.386  31.547  54.305  0.00  0.00    -0.273 OA
ATOM     15  H   GLU A   6       8.426  34.100  52.731  0.00  0.00    +0.150 HD
BRANCH  13  16
ATOM     16  CA  GLY A   5       9.614  32.004  53.607  0.00  0.00    +0.176 C 
BRANCH  16  17
ATOM     17  N   GLY A   5      10.014  31.199  54.744  0.00  0.00    -0.295 N 
ATOM     18  H   GLY A   5       9.296  30.902  55.435  0.00  0.00    +0.150 HD
ATOM     19  C   TRP A   4      11.278  30.832  54.923  0.00  0.00    +0.241 C 
ATOM     20  O   TRP A   4      12.193  31.138  54.156  0.00  0.00    -0.273 OA
BRANCH  19  21
ATOM     21  CA  TRP A   4      11.532  30.002  56.164  0.00  0.00    +0.153 C 
BRANCH  21  22
ATOM     22  N   TRP A   4      12.919  29.598  56.294  0.00  0.00    -0.297 N 
ATOM     23  C   SER A   3      13.232  28.621  57.133  0.00  0.00    +0.243 C 
ATOM     24  O   SER A   3      12.384  28.042  57.826  0.00  0.00    -0.273 OA
ATOM     25  H   TRP A   4      13.659  30.069  55.736  0.00  0.00    +0.150 HD
BRANCH  23  26
ATOM     26  CA  SER A   3      14.703  28.247  57.237  0.00  0.00    +0.178 C 
BRANCH  26  27
ATOM     27  N   SER A   3      15.303  27.709  56.026  0.00  0.00    -0.295 N 
ATOM     28  C   VAL A   2      15.728  26.447  55.966  0.00  0.00    +0.241 C 
ATOM     29  O   VAL A   2      15.596  25.646  56.899  0.00  0.00    -0.273 OA
ATOM     30  H   SER A   3      15.402  28.321  55.191  0.00  0.00    +0.150 HD
BRANCH  28  31
ATOM     31  CA  VAL A   2      16.401  26.022  54.653  0.00  0.00    +0.148 C 
BRANCH  31  32
ATOM     32  N   VAL A   2      17.733  25.554  55.022  0.00  0.00    -0.297 N 
ATOM     33  C   ILE A   1      18.569  26.361  55.671  0.00  0.00    +0.238 C 
ATOM     34  O   ILE A   1      18.288  27.536  55.925  0.00  0.00    -0.274 OA
ATOM     35  H   VAL A   2      18.030  24.588  54.777  0.00  0.00    +0.150 HD
BRANCH  33  36
ATOM     36  CA  ILE A   1      19.938  25.797  56.061  0.00  0.00    +0.145 C 
BRANCH  36  37
ATOM     37  N   ILE A   1      20.898  26.755  55.542  0.00  0.00    -0.238 NA
ATOM     38  H   ILE A   1      20.797  27.756  55.807  0.00  0.00    +0.142 HD
ENDBRANCH  36  37
BRANCH  36  39
ATOM     39  CB  ILE A   1      20.021  25.712  57.600  0.00  0.00    +0.025 C 
ATOM     40  CG2 ILE A   1      18.995  24.733  58.133  0.00  0.00    +0.002 C 
BRANCH  39  41
ATOM     41  CG1 ILE A   1      21.428  25.299  58.023  0.00  0.00    +0.002 C 
ATOM     42  CD1 ILE A   1      21.693  25.482  59.490  0.00  0.00    +0.000 C 
ENDBRANCH  39  41
ENDBRANCH  36  39
ENDBRANCH  33  36
ENDBRANCH  31  32
BRANCH  31  43
ATOM     43  CB  VAL A   2      15.573  24.909  53.966  0.00  0.00    +0.027 C 
ATOM     44  CG2 VAL A   2      14.183  25.435  53.611  0.00  0.00    +0.002 C 
ATOM     45  CG1 VAL A   2      16.280  24.433  52.710  0.00  0.00    +0.002 C 
ENDBRANCH  31  43
ENDBRANCH  28  31
ENDBRANCH  26  27
BRANCH  26  46
ATOM     46  CB  SER A   3      15.511  29.464  57.707  0.00  0.00    +0.166 C 
BRANCH  46  47
ATOM     47  OG  SER A   3      15.137  29.841  59.025  0.00  0.00    -0.380 OA
ATOM     48  H   SER A   3      15.670  30.626  59.306  0.00  0.00    +0.211 HD
ENDBRANCH  46  47
ENDBRANCH  26  46
ENDBRANCH  23  26
ENDBRANCH  21  22
BRANCH  21  49
ATOM     49  CB  TRP A   4      11.080  30.786  57.409  0.00  0.00    +0.057 C 
BRANCH  49  50
ATOM     50  CG  TRP A   4      11.880  32.044  57.702  0.00  0.00    -0.002 A 
ATOM     51  CD1 TRP A   4      13.071  32.124  58.373  0.00  0.00    +0.068 A 
ATOM     52  NE1 TRP A   4      13.492  33.429  58.445  0.00  0.00    -0.352 N 
ATOM     53  HE1 TRP A   4      14.366  33.758  58.903  0.00  0.00    +0.166 HD
ATOM     54  CE2 TRP A   4      12.573  34.228  57.814  0.00  0.00    +0.056 A 
ATOM     55  CZ2 TRP A   4      12.560  35.621  57.630  0.00  0.00    +0.017 A 
ATOM     56  CH2 TRP A   4      11.493  36.164  56.946  0.00  0.00    +0.001 A 
ATOM     57  CZ3 TRP A   4      10.447  35.356  56.451  0.00  0.00    +0.000 A 
ATOM     58  CE3 TRP A   4      10.461  33.968  56.636  0.00  0.00    +0.001 A 
ATOM     59  CD2 TRP A   4      11.539  33.389  57.332  0.00  0.00    +0.013 A 
ENDBRANCH  49  50
ENDBRANCH  21  49
ENDBRANCH  19  21
ENDBRANCH  16  17
ENDBRANCH  13  16
ENDBRANCH  11  12
BRANCH  11  60
ATOM     60  CB  GLU A   6       6.198  35.370  53.095  0.00  0.00    +0.041 C 
BRANCH  60  61
ATOM     61  CG  GLU A   6       6.970  36.112  54.173  0.00  0.00    +0.116 C 
BRANCH  61  62
ATOM     62  CD  GLU A   6       6.890  37.623  54.038  0.00  0.00    +0.365 C 
ATOM     63  OE2 GLU A   6       5.769  38.175  54.143  0.00  0.00    -0.246 OA
ATOM     64  OE1 GLU A   6       7.948  38.263  53.831  0.00  0.00    -0.246 OA
ENDBRANCH  61  62
ENDBRANCH  60  61
ENDBRANCH  11  60
ENDBRANCH   9  11
ENDBRANCH   6   7
ENDBRANCH   3   6
ENDBRANCH   1   2
BRANCH   1  65
ATOM     65  C   CYS A   8       6.340  29.869  46.958  0.00  0.00    +0.242 C 
ATOM     66  N   ALA A   9       7.404  30.422  46.382  0.00  0.00    -0.297 N 
ATOM     67  H   ALA A   9       8.271  30.533  46.946  0.00  0.00    +0.150 HD
ATOM     68  O   CYS A   8       5.270  29.672  46.379  0.00  0.00    -0.273 OA
BRANCH  66  69
ATOM     69  CA  ALA A   9       7.413  30.879  45.001  0.00  0.00    +0.149 C 
ATOM     70  CB  ALA A   9       7.086  29.725  44.061  0.00  0.00    +0.031 C 
BRANCH  69  71
ATOM     71  C   ALA A   9       6.460  32.043  44.757  0.00  0.00    +0.241 C 
ATOM     72  N   ARG A  10       6.061  32.740  45.824  0.00  0.00    -0.298 N 
ATOM     73  H   ARG A  10       6.393  32.453  46.767  0.00  0.00    +0.150 HD
ATOM     74  O   ALA A   9       6.095  32.305  43.614  0.00  0.00    -0.273 OA
BRANCH  72  75
ATOM     75  CA  ARG A  10       5.167  33.901  45.707  0.00  0.00    +0.137 C 
BRANCH  75  76
ATOM     76  C   ARG A  10       5.902  35.058  45.029  0.00  0.00    +0.227 C 
ATOM     77  O   ARG A  10       7.103  35.253  45.240  0.00  0.00    -0.286 OA
ENDBRANCH  75  76
BRANCH  75  78
ATOM     78  CB  ARG A  10       4.705  34.369  47.084  0.00  0.00    +0.031 C 
BRANCH  78  79
ATOM     79  CG  ARG A  10       3.694  33.469  47.756  0.00  0.00    +0.045 C 
BRANCH  79  80
ATOM     80  CD  ARG A  10       3.307  34.022  49.119  0.00  0.00    +0.174 C 
BRANCH  80  81
ATOM     81  NE  ARG A  10       2.257  33.226  49.750  0.00  0.00    -0.265 N 
ATOM     82  CZ  ARG A  10       1.690  33.512  50.920  0.00  0.00    +0.342 C 
ATOM     83  NH2 ARG A  10       2.071  34.586  51.602  0.00  0.00    -0.292 N 
ATOM     84 HH21 ARG A  10       1.626  34.807  52.516  0.00  0.00    +0.255 HD
ATOM     85 HH22 ARG A  10       2.814  35.206  51.222  0.00  0.00    +0.255 HD
ATOM     86  NH1 ARG A  10       0.739  32.721  51.410  0.00  0.00    -0.292 N 
ATOM     87 HH11 ARG A  10       0.296  32.945  52.324  0.00  0.00    +0.255 HD
ATOM     88 HH12 ARG A  10       0.438  31.879  50.879  0.00  0.00    +0.255 HD
ATOM     89  HE  ARG A  10       1.929  32.375  49.250  0.00  0.00    +0.259 HD
ENDBRANCH  80  81
ENDBRANCH  79  80
ENDBRANCH  78  79
ENDBRANCH  75  78
ENDBRANCH  72  75
ENDBRANCH  69  71
ENDBRANCH  66  69
ENDBRANCH   1  65
BRANCH   1  90
ATOM     90  CB  CYS A   8       6.418  27.948  48.541  0.00  0.00    +0.098 C 
BRANCH  90  91
ATOM     91  SG  CYS A   8       6.150  27.421  50.240  0.00  0.00    -0.080 S 
BRANCH  91  92
ATOM     92  SG  TRP A   4       6.061  24.983  50.018  0.00  0.00    -0.080 S 
BRANCH  92  93
ATOM     93  CB  TRP A   4       7.807  24.627  49.642  0.00  0.00    +0.098 C 
BRANCH  93  94
ATOM     94  CA  TRP A   4       8.831  25.149  50.657  0.00  0.00    +0.160 C 
BRANCH  94  96
ATOM     95  C   SER A   3      10.592  25.864  49.205  0.00  0.00    +0.241 C 
ATOM     96  N   TRP A   4      10.167  25.000  50.115  0.00  0.00    -0.296 N 
ATOM     97  H   TRP A   4      10.783  24.226  50.436  0.00  0.00    +0.150 HD
ATOM     98  O   SER A   3       9.885  26.794  48.807  0.00  0.00    -0.273 OA
BRANCH  95  99
ATOM     99  CA  SER A   3      12.001  25.686  48.645  0.00  0.00    +0.149 C 
ATOM    100  CB  SER A   3      13.050  25.882  49.744  0.00  0.00    +0.031 C 
BRANCH  99 102
ATOM    101  C   VAL A   2      11.490  26.665  46.501  0.00  0.00    +0.241 C 
ATOM    102  N   SER A   3      12.023  26.796  47.706  0.00  0.00    -0.297 N 
ATOM    103  H   SER A   3      12.460  27.698  47.983  0.00  0.00    +0.150 HD
ATOM    104  O   VAL A   2      11.060  25.592  46.089  0.00  0.00    -0.273 OA
BRANCH 101 105
ATOM    105  CA  VAL A   2      11.479  27.909  45.612  0.00  0.00    +0.160 C 
BRANCH 105 107
ATOM    106  C   ILE A   1      11.122  28.352  43.243  0.00  0.00    +0.238 C 
ATOM    107  N   VAL A   2      11.145  27.487  44.252  0.00  0.00    -0.297 N 
ATOM    108  H   VAL A   2      10.921  26.488  44.070  0.00  0.00    +0.150 HD
ATOM    109  O   ILE A   1      11.402  29.547  43.379  0.00  0.00    -0.274 OA
BRANCH 106 110
ATOM    110  CA  ILE A   1      10.714  27.800  41.884  0.00  0.00    +0.145 C 
BRANCH 110 111
ATOM    111  N   ILE A   1       9.811  28.770  41.291  0.00  0.00    -0.238 NA
ATOM    112  H   ILE A   1      10.065  29.778  41.324  0.00  0.00    +0.142 HD
ENDBRANCH 110 111
BRANCH 110 113
ATOM    113  CB  ILE A   1      11.934  27.602  40.998  0.00  0.00    +0.038 C 
BRANCH 113 114
ATOM    114  CG  ILE A   1      11.602  27.027  39.638  0.00  0.00    +0.116 C 
BRANCH 114 115
ATOM    115  CD  ILE A   1      12.840  26.563  38.903  0.00  0.00    +0.365 C 
ATOM    116  OE2 ILE A   1      13.716  27.416  38.626  0.00  0.00    -0.246 OA
ATOM    117  OE1 ILE A   1      12.940  25.345  38.611  0.00  0.00    -0.246 OA
ENDBRANCH 114 115
ENDBRANCH 113 114
ENDBRANCH 110 113
ENDBRANCH 106 110
ENDBRANCH 105 107
BRANCH 105 118
ATOM    118  CB  VAL A   2      10.397  28.898  46.087  0.00  0.00    +0.143 C 
BRANCH 118 119
ATOM    119  CG  VAL A   2      10.811  29.717  47.306  0.00  0.00    +0.367 C 
ATOM    120  OD2 VAL A   2       9.931  30.394  47.880  0.00  0.00    -0.246 OA
ATOM    121  OD1 VAL A   2      12.002  29.702  47.680  0.00  0.00    -0.246 OA
ENDBRANCH 118 119
ENDBRANCH 105 118
ENDBRANCH 101 105
ENDBRANCH  99 102
ENDBRANCH  95  99
ENDBRANCH  94  96
BRANCH  94 122
ATOM    122  C   TRP A   4       8.733  24.389  51.968  0.00  0.00    +0.242 C 
ATOM    123  N   GLY A   5       7.544  24.392  52.562  0.00  0.00    -0.297 N 
ATOM    124  H   GLY A   5       6.763  24.911  52.113  0.00  0.00    +0.150 HD
ATOM    125  O   TRP A   4       9.718  23.827  52.438  0.00  0.00    -0.273 OA
BRANCH 123 126
ATOM    126  CA  GLY A   5       7.292  23.694  53.821  0.00  0.00    +0.149 C 
BRANCH 126 127
ATOM    127  C   GLY A   5       7.746  22.236  53.692  0.00  0.00    +0.241 C 
ATOM    128  N   GLU A   6       8.520  21.773  54.668  0.00  0.00    -0.295 N 
ATOM    129  H   GLU A   6       8.777  22.393  55.463  0.00  0.00    +0.150 HD
ATOM    130  O   GLY A   5       7.405  21.547  52.723  0.00  0.00    -0.273 OA
BRANCH 128 131
ATOM    131  CA  GLU A   6       9.008  20.406  54.630  0.00  0.00    +0.176 C 
BRANCH 131 132
ATOM    132  C   GLU A   6      10.472  20.305  54.236  0.00  0.00    +0.243 C 
ATOM    133  O   GLU A   6      11.137  19.312  54.535  0.00  0.00    -0.273 OA
ATOM    134  N   GLY A   7      10.975  21.329  53.551  0.00  0.00    -0.296 N 
ATOM    135  H   GLY A   7      10.356  22.126  53.301  0.00  0.00    +0.150 HD
BRANCH 134 136
ATOM    136  CA  GLY A   7      12.375  21.358  53.143  0.00  0.00    +0.160 C 
BRANCH 136 137
ATOM    137  C   GLY A   7      13.186  21.994  54.267  0.00  0.00    +0.241 C 
ATOM    138  N   CYS A   8      12.494  22.666  55.183  0.00  0.00    -0.295 N 
ATOM    139  H   CYS A   8      11.459  22.722  55.092  0.00  0.00    +0.150 HD
ATOM    140  O   GLY A   7      14.408  21.882  54.302  0.00  0.00    -0.273 OA
BRANCH 138 141
ATOM    141  CA  CYS A   8      13.142  23.327  56.311  0.00  0.00    +0.178 C 
BRANCH 141 142
ATOM    142  C   CYS A   8      14.206  22.432  56.935  0.00  0.00    +0.243 C 
ATOM    143  N   ALA A   9      15.329  23.029  57.330  0.00  0.00    -0.295 N 
ATOM    144  H   ALA A   9      15.442  24.054  57.196  0.00  0.00    +0.150 HD
ATOM    145  O   CYS A   8      14.008  21.223  57.057  0.00  0.00    -0.273 OA
BRANCH 143 146
ATOM    146  CA  ALA A   9      16.395  22.265  57.944  0.00  0.00    +0.176 C 
BRANCH 146 147
ATOM    147  C   ALA A   9      17.274  21.590  56.912  0.00  0.00    +0.243 C 
ATOM    148  O   ALA A   9      18.386  21.169  57.226  0.00  0.00    -0.273 OA
ATOM    149  N   ARG A  10      16.781  21.502  55.679  0.00  0.00    -0.296 N 
ATOM    150  H   ARG A  10      15.845  21.907  55.476  0.00  0.00    +0.150 HD
BRANCH 149 151
ATOM    151  CA  ARG A  10      17.521  20.852  54.609  0.00  0.00    +0.163 C 
BRANCH 151 152
ATOM    152  C   ARG A  10      18.737  21.611  54.110  0.00  0.00    +0.229 C 
ATOM    153  O   ARG A  10      18.959  22.757  54.507  0.00  0.00    -0.286 OA
ENDBRANCH 151 152
ENDBRANCH 149 151
ENDBRANCH 146 147
ENDBRANCH 143 146
ENDBRANCH 141 142
BRANCH 141 154
ATOM    154  CB  CYS A   8      12.110  23.696  57.385  0.00  0.00    +0.166 C 
BRANCH 154 155
ATOM    155  O   CYS A   8      11.143  24.600  56.879  0.00  0.00    -0.380 OA
ATOM    156  H   CYS A   8      10.493  24.819  57.592  0.00  0.00    +0.211 HD
ENDBRANCH 154 155
ENDBRANCH 141 154
ENDBRANCH 138 141
ENDBRANCH 136 137
BRANCH 136 157
ATOM    157  CB  GLY A   7      12.563  22.182  51.862  0.00  0.00    +0.143 C 
BRANCH 157 158
ATOM    158  CG  GLY A   7      11.885  21.568  50.655  0.00  0.00    +0.367 C 
ATOM    159  OD2 GLY A   7      11.940  20.335  50.499  0.00  0.00    -0.246 OA
ATOM    160  OD1 GLY A   7      11.309  22.322  49.846  0.00  0.00    -0.246 OA
ENDBRANCH 157 158
ENDBRANCH 136 157
ENDBRANCH 134 136
ENDBRANCH 131 132
ENDBRANCH 128 131
ENDBRANCH 126 127
BRANCH 126 161
ATOM    161  CB  GLY A   5       5.790  23.769  54.141  0.00  0.00    +0.039 C 
BRANCH 161 162
ATOM    162  CG  GLY A   5       5.397  23.305  55.532  0.00  0.00    +0.087 C 
BRANCH 162 163
ATOM    163  CD  GLY A   5       6.020  24.160  56.616  0.00  0.00    +0.219 C 
ATOM    164  NE2 GLY A   5       6.992  23.592  57.332  0.00  0.00    -0.329 N 
ATOM    165 HE21 GLY A   5       7.468  24.132  58.083  0.00  0.00    +0.145 HD
ATOM    166 HE22 GLY A   5       7.273  22.609  57.140  0.00  0.00    +0.145 HD
ATOM    167  OE1 GLY A   5       5.646  25.325  56.803  0.00  0.00    -0.275 OA
ENDBRANCH 162 163
ENDBRANCH 161 162
ENDBRANCH 126 161
ENDBRANCH 123 126
ENDBRANCH  94 122
ENDBRANCH  93  94
ENDBRANCH  92  93
ENDBRANCH  91  92
ENDBRANCH  90  91
ENDBRANCH   1  90
TORSDOF 71
REMARK  Name = ../refined-set-2016/1z6e/1z6e_pocket.pdb
REMARK  242 active torsions:
REMARK  status: ('A' for Active; 'I' for Inactive)
REMARK    1  A    between atoms: _1  and  _5
REMARK    2  A    between atoms: _5  and  _6
REMARK    3  A    between atoms: _5  and  _8
REMARK    4  A    between atoms: _8  and  _9
REMARK    5  A    between atoms: _12  and  _14
REMARK    6  A    between atoms: _14  and  _15
REMARK    7  A    between atoms: _14  and  _17
REMARK    8  A    between atoms: _20  and  _22
REMARK    9  A    between atoms: _22  and  _23
REMARK   10  A    between atoms: _22  and  _25
REMARK   11  A    between atoms: _25  and  _26
REMARK   12  A    between atoms: _31  and  _33
REMARK   13  A    between atoms: _33  and  _34
REMARK   14  A    between atoms: _33  and  _36
REMARK   15  A    between atoms: _38  and  _40
REMARK   16  A    between atoms: _40  and  _41
REMARK   17  A    between atoms: _40  and  _43
REMARK   18  A    between atoms: _43  and  _44
REMARK   19  A    between atoms: _44  and  _45
REMARK   20  A    between atoms: _50  and  _52
REMARK   21  A    between atoms: _52  and  _53
REMARK   22  A    between atoms: _52  and  _55
REMARK   23  A    between atoms: _55  and  _56
REMARK   24  A    between atoms: _62  and  _64
REMARK   25  A    between atoms: _64  and  _65
REMARK   26  A    between atoms: _64  and  _67
REMARK   27  A    between atoms: _67  and  _68
REMARK   28  A    between atoms: _71  and  _73
REMARK   29  A    between atoms: _73  and  _74
REMARK   30  A    between atoms: _73  and  _76
REMARK   31  A    between atoms: _76  and  _77
REMARK   32  A    between atoms: _77  and  _78
REMARK   33  A    between atoms: _78  and  _79
REMARK   34  A    between atoms: _79  and  _80
REMARK   35  A    between atoms: _84  and  _86
REMARK   36  A    between atoms: _86  and  _87
REMARK   37  A    between atoms: _86  and  _89
REMARK   38  A    between atoms: _89  and  _90
REMARK   39  A    between atoms: _90  and  _91
REMARK   40  A    between atoms: _94  and  _96
REMARK   41  A    between atoms: _96  and  _97
REMARK   42  A    between atoms: _96  and  _99
REMARK   43  A    between atoms: _99  and  _100
REMARK   44  A    between atoms: _103  and  _105
REMARK   45  A    between atoms: _105  and  _106
REMARK   46  A    between atoms: _105  and  _108
REMARK   47  A    between atoms: _108  and  _109
REMARK   48  A    between atoms: _114  and  _115
REMARK   49  A    between atoms: _117  and  _119
REMARK   50  A    between atoms: _119  and  _120
REMARK   51  A    between atoms: _119  and  _122
REMARK   52  A    between atoms: _122  and  _123
REMARK   53  A    between atoms: _126  and  _128
REMARK   54  A    between atoms: _128  and  _129
REMARK   55  A    between atoms: _128  and  _131
REMARK   56  A    between atoms: _131  and  _132
REMARK   57  A    between atoms: _135  and  _137
REMARK   58  A    between atoms: _137  and  _138
REMARK   59  A    between atoms: _137  and  _140
REMARK   60  A    between atoms: _143  and  _145
REMARK   61  A    between atoms: _145  and  _146
REMARK   62  A    between atoms: _148  and  _150
REMARK   63  A    between atoms: _150  and  _151
REMARK   64  A    between atoms: _150  and  _153
REMARK   65  A    between atoms: _153  and  _154
REMARK   66  A    between atoms: _154  and  _155
REMARK   67  A    between atoms: _155  and  _156
REMARK   68  A    between atoms: _165  and  _167
REMARK   69  A    between atoms: _167  and  _168
REMARK   70  A    between atoms: _167  and  _170
REMARK   71  A    between atoms: _170  and  _171
REMARK   72  A    between atoms: _176  and  _178
REMARK   73  A    between atoms: _178  and  _179
REMARK   74  A    between atoms: _178  and  _181
REMARK   75  A    between atoms: _181  and  _182
REMARK   76  A    between atoms: _182  and  _183
REMARK   77  A    between atoms: _186  and  _188
REMARK   78  A    between atoms: _188  and  _189
REMARK   79  A    between atoms: _188  and  _191
REMARK   80  A    between atoms: _191  and  _192
REMARK   81  A    between atoms: _192  and  _193
REMARK   82  A    between atoms: _193  and  _194
REMARK   83  A    between atoms: _194  and  _195
REMARK   84  A    between atoms: _199  and  _201
REMARK   85  A    between atoms: _201  and  _202
REMARK   86  A    between atoms: _204  and  _206
REMARK   87  A    between atoms: _206  and  _207
REMARK   88  A    between atoms: _206  and  _209
REMARK   89  A    between atoms: _209  and  _210
REMARK   90  A    between atoms: _210  and  _211
REMARK   91  A    between atoms: _211  and  _212
REMARK   92  A    between atoms: _221  and  _223
REMARK   93  A    between atoms: _223  and  _224
REMARK   94  A    between atoms: _223  and  _226
REMARK   95  A    between atoms: _226  and  _227
REMARK   96  A    between atoms: _227  and  _228
REMARK   97  A    between atoms: _233  and  _235
REMARK   98  A    between atoms: _235  and  _236
REMARK   99  A    between atoms: _235  and  _238
REMARK  100  A    between atoms: _238  and  _239
REMARK  101  A    between atoms: _242  and  _244
REMARK  102  A    between atoms: _244  and  _245
REMARK  103  A    between atoms: _244  and  _247
REMARK  104  A    between atoms: _250  and  _252
REMARK  105  A    between atoms: _252  and  _253
REMARK  106  A    between atoms: _252  and  _255
REMARK  107  A    between atoms: _255  and  _256
REMARK  108  A    between atoms: _258  and  _260
REMARK  109  A    between atoms: _260  and  _261
REMARK  110  A    between atoms: _260  and  _263
REMARK  111  A    between atoms: _263  and  _264
REMARK  112  A    between atoms: _266  and  _268
REMARK  113  A    between atoms: _268  and  _269
REMARK  114  A    between atoms: _268  and  _271
REMARK  115  A    between atoms: _271  and  _272
REMARK  116  A    between atoms: _278  and  _280
REMARK  117  A    between atoms: _280  and  _281
REMARK  118  A    between atoms: _280  and  _283
REMARK  119  A    between atoms: _283  and  _284
REMARK  120  A    between atoms: _287  and  _289
REMARK  121  A    between atoms: _289  and  _290
REMARK  122  A    between atoms: _289  and  _292
REMARK  123  A    between atoms: _292  and  _293
REMARK  124  A    between atoms: _296  and  _298
REMARK  125  A    between atoms: _298  and  _299
REMARK  126  A    between atoms: _298  and  _301
REMARK  127  A    between atoms: _301  and  _302
REMARK  128  A    between atoms: _305  and  _307
REMARK  129  A    between atoms: _307  and  _308
REMARK  130  A    between atoms: _307  and  _310
REMARK  131  A    between atoms: _310  and  _311
REMARK  132  A    between atoms: _311  and  _312
REMARK  133  A    between atoms: _314  and  _316
REMARK  134  A    between atoms: _316  and  _317
REMARK  135  A    between atoms: _316  and  _319
REMARK  136  A    between atoms: _321  and  _323
REMARK  137  A    between atoms: _323  and  _324
REMARK  138  A    between atoms: _327  and  _329
REMARK  139  A    between atoms: _329  and  _330
REMARK  140  A    between atoms: _332  and  _334
REMARK  141  A    between atoms: _334  and  _335
REMARK  142  A    between atoms: _334  and  _337
REMARK  143  A    between atoms: _337  and  _338
REMARK  144  A    between atoms: _343  and  _344
REMARK  145  A    between atoms: _346  and  _348
REMARK  146  A    between atoms: _348  and  _349
REMARK  147  A    between atoms: _348  and  _351
REMARK  148  A    between atoms: _351  and  _352
REMARK  149  A    between atoms: _352  and  _353
REMARK  150  A    between atoms: _356  and  _358
REMARK  151  A    between atoms: _358  and  _359
REMARK  152  A    between atoms: _358  and  _361
REMARK  153  A    between atoms: _361  and  _362
REMARK  154  A    between atoms: _365  and  _367
REMARK  155  A    between atoms: _367  and  _368
REMARK  156  A    between atoms: _371  and  _373
REMARK  157  A    between atoms: _373  and  _374
REMARK  158  A    between atoms: _373  and  _376
REMARK  159  A    between atoms: _376  and  _377
REMARK  160  A    between atoms: _377  and  _500
REMARK  161  A    between atoms: _378  and  _380
REMARK  162  A    between atoms: _380  and  _381
REMARK  163  A    between atoms: _380  and  _383
REMARK  164  A    between atoms: _383  and  _384
REMARK  165  A    between atoms: _384  and  _385
REMARK  166  A    between atoms: _390  and  _392
REMARK  167  A    between atoms: _392  and  _393
REMARK  168  A    between atoms: _395  and  _397
REMARK  169  A    between atoms: _397  and  _398
REMARK  170  A    between atoms: _397  and  _400
REMARK  171  A    between atoms: _400  and  _401
REMARK  172  A    between atoms: _404  and  _406
REMARK  173  A    between atoms: _406  and  _407
REMARK  174  A    between atoms: _406  and  _409
REMARK  175  A    between atoms: _409  and  _410
REMARK  176  A    between atoms: _412  and  _414
REMARK  177  A    between atoms: _414  and  _415
REMARK  178  A    between atoms: _417  and  _419
REMARK  179  A    between atoms: _419  and  _420
REMARK  180  A    between atoms: _422  and  _424
REMARK  181  A    between atoms: _424  and  _425
REMARK  182  A    between atoms: _424  and  _427
REMARK  183  A    between atoms: _427  and  _428
REMARK  184  A    between atoms: _433  and  _435
REMARK  185  A    between atoms: _435  and  _436
REMARK  186  A    between atoms: _435  and  _438
REMARK  187  A    between atoms: _438  and  _439
REMARK  188  A    between atoms: _442  and  _444
REMARK  189  A    between atoms: _444  and  _445
REMARK  190  A    between atoms: _444  and  _447
REMARK  191  A    between atoms: _450  and  _452
REMARK  192  A    between atoms: _452  and  _453
REMARK  193  A    between atoms: _452  and  _455
REMARK  194  A    between atoms: _455  and  _456
REMARK  195  A    between atoms: _458  and  _460
REMARK  196  A    between atoms: _460  and  _461
REMARK  197  A    between atoms: _460  and  _463
REMARK  198  A    between atoms: _463  and  _464
REMARK  199  A    between atoms: _474  and  _476
REMARK  200  A    between atoms: _476  and  _477
REMARK  201  A    between atoms: _479  and  _481
REMARK  202  A    between atoms: _481  and  _482
REMARK  203  A    between atoms: _481  and  _484
REMARK  204  A    between atoms: _484  and  _485
REMARK  205  A    between atoms: _485  and  _486
REMARK  206  A    between atoms: _489  and  _491
REMARK  207  A    between atoms: _491  and  _492
REMARK  208  A    between atoms: _494  and  _496
REMARK  209  A    between atoms: _496  and  _497
REMARK  210  A    between atoms: _496  and  _499
REMARK  211  A    between atoms: _499  and  _500
REMARK  212  A    between atoms: _501  and  _503
REMARK  213  A    between atoms: _503  and  _504
REMARK  214  A    between atoms: _507  and  _509
REMARK  215  A    between atoms: _509  and  _510
REMARK  216  A    between atoms: _509  and  _512
REMARK  217  A    between atoms: _512  and  _513
REMARK  218  A    between atoms: _513  and  _514
REMARK  219  A    between atoms: _514  and  _515
REMARK  220  A    between atoms: _524  and  _526
REMARK  221  A    between atoms: _526  and  _527
REMARK  222  A    between atoms: _526  and  _529
REMARK  223  A    between atoms: _529  and  _530
REMARK  224  A    between atoms: _530  and  _531
REMARK  225  A    between atoms: _531  and  _532
REMARK  226  A    between atoms: _532  and  _533
REMARK  227  A    between atoms: _537  and  _539
REMARK  228  A    between atoms: _539  and  _540
REMARK  229  A    between atoms: _539  and  _542
REMARK  230  A    between atoms: _542  and  _543
REMARK  231  A    between atoms: _548  and  _549
REMARK  232  A    between atoms: _551  and  _553
REMARK  233  A    between atoms: _553  and  _554
REMARK  234  A    between atoms: _556  and  _558
REMARK  235  A    between atoms: _558  and  _559
REMARK  236  A    between atoms: _558  and  _561
REMARK  237  A    between atoms: _561  and  _562
REMARK  238  A    between atoms: _565  and  _567
REMARK  239  A    between atoms: _567  and  _568
REMARK  240  A    between atoms: _567  and  _570
REMARK  241  A    between atoms: _570  and  _571
REMARK  242  A    between atoms: _576  and  _577
REMARK                            x       y       z     vdW  Elec       q    Type
REMARK                         _______ _______ _______ _____ _____    ______ ____
ROOT
ATOM      1  CB  HIS A   1      21.278  26.183  51.203  0.00  0.00    +0.072 C 
ENDROOT
BRANCH   1   2
ATOM      2  CG  HIS A   1      21.665  27.277  50.248  0.00  0.00    +0.082 A 
ATOM      3  ND1 HIS A   1      22.979  27.600  49.975  0.00  0.00    -0.227 NA
ATOM      4  CE1 HIS A   1      23.018  28.565  49.072  0.00  0.00    +0.199 A 
ATOM      5  NE2 HIS A   1      21.776  28.881  48.750  0.00  0.00    -0.221 NA
ATOM      6  CD2 HIS A   1      20.911  28.092  49.472  0.00  0.00    +0.115 A 
ENDBRANCH   1   2
BRANCH   1   7
ATOM      7  CA  HIS A   1      21.656  24.783  50.708  0.00  0.00    +0.139 C 
BRANCH   7   8
ATOM      8  N   HIS A   1      21.501  23.741  51.709  0.00  0.00    -0.239 NA
ATOM      9  H   HIS A   1      22.118  23.767  52.546  0.00  0.00    +0.142 HD
ENDBRANCH   7   8
BRANCH   7  10
ATOM     10  C   HIS A   1      23.172  24.678  50.570  0.00  0.00    +0.224 C 
ATOM     11  O   HIS A   1      23.909  24.959  51.513  0.00  0.00    -0.287 OA
ENDBRANCH   7  10
ENDBRANCH   1   7
TORSDOF 4
REMARK  Name = ../refined-set-2016/1z6e/1z6e_pocket.pdb
REMARK  242 active torsions:
REMARK  status: ('A' for Active; 'I' for Inactive)
REMARK    1  A    between atoms: _1  and  _5
REMARK    2  A    between atoms: _5  and  _6
REMARK    3  A    between atoms: _5  and  _8
REMARK    4  A    between atoms: _8  and  _9
REMARK    5  A    between atoms: _12  and  _14
REMARK    6  A    between atoms: _14  and  _15
REMARK    7  A    between atoms: _14  and  _17
REMARK    8  A    between atoms: _20  and  _22
REMARK    9  A    between atoms: _22  and  _23
REMARK   10  A    between atoms: _22  and  _25
REMARK   11  A    between atoms: _25  and  _26
REMARK   12  A    between atoms: _31  and  _33
REMARK   13  A    between atoms: _33  and  _34
REMARK   14  A    between atoms: _33  and  _36
REMARK   15  A    between atoms: _38  and  _40
REMARK   16  A    between atoms: _40  and  _41
REMARK   17  A    between atoms: _40  and  _43
REMARK   18  A    between atoms: _43  and  _44
REMARK   19  A    between atoms: _44  and  _45
REMARK   20  A    between atoms: _50  and  _52
REMARK   21  A    between atoms: _52  and  _53
REMARK   22  A    between atoms: _52  and  _55
REMARK   23  A    between atoms: _55  and  _56
REMARK   24  A    between atoms: _62  and  _64
REMARK   25  A    between atoms: _64  and  _65
REMARK   26  A    between atoms: _64  and  _67
REMARK   27  A    between atoms: _67  and  _68
REMARK   28  A    between atoms: _71  and  _73
REMARK   29  A    between atoms: _73  and  _74
REMARK   30  A    between atoms: _73  and  _76
REMARK   31  A    between atoms: _76  and  _77
REMARK   32  A    between atoms: _77  and  _78
REMARK   33  A    between atoms: _78  and  _79
REMARK   34  A    between atoms: _79  and  _80
REMARK   35  A    between atoms: _84  and  _86
REMARK   36  A    between atoms: _86  and  _87
REMARK   37  A    between atoms: _86  and  _89
REMARK   38  A    between atoms: _89  and  _90
REMARK   39  A    between atoms: _90  and  _91
REMARK   40  A    between atoms: _94  and  _96
REMARK   41  A    between atoms: _96  and  _97
REMARK   42  A    between atoms: _96  and  _99
REMARK   43  A    between atoms: _99  and  _100
REMARK   44  A    between atoms: _103  and  _105
REMARK   45  A    between atoms: _105  and  _106
REMARK   46  A    between atoms: _105  and  _108
REMARK   47  A    between atoms: _108  and  _109
REMARK   48  A    between atoms: _114  and  _115
REMARK   49  A    between atoms: _117  and  _119
REMARK   50  A    between atoms: _119  and  _120
REMARK   51  A    between atoms: _119  and  _122
REMARK   52  A    between atoms: _122  and  _123
REMARK   53  A    between atoms: _126  and  _128
REMARK   54  A    between atoms: _128  and  _129
REMARK   55  A    between atoms: _128  and  _131
REMARK   56  A    between atoms: _131  and  _132
REMARK   57  A    between atoms: _135  and  _137
REMARK   58  A    between atoms: _137  and  _138
REMARK   59  A    between atoms: _137  and  _140
REMARK   60  A    between atoms: _143  and  _145
REMARK   61  A    between atoms: _145  and  _146
REMARK   62  A    between atoms: _148  and  _150
REMARK   63  A    between atoms: _150  and  _151
REMARK   64  A    between atoms: _150  and  _153
REMARK   65  A    between atoms: _153  and  _154
REMARK   66  A    between atoms: _154  and  _155
REMARK   67  A    between atoms: _155  and  _156
REMARK   68  A    between atoms: _165  and  _167
REMARK   69  A    between atoms: _167  and  _168
REMARK   70  A    between atoms: _167  and  _170
REMARK   71  A    between atoms: _170  and  _171
REMARK   72  A    between atoms: _176  and  _178
REMARK   73  A    between atoms: _178  and  _179
REMARK   74  A    between atoms: _178  and  _181
REMARK   75  A    between atoms: _181  and  _182
REMARK   76  A    between atoms: _182  and  _183
REMARK   77  A    between atoms: _186  and  _188
REMARK   78  A    between atoms: _188  and  _189
REMARK   79  A    between atoms: _188  and  _191
REMARK   80  A    between atoms: _191  and  _192
REMARK   81  A    between atoms: _192  and  _193
REMARK   82  A    between atoms: _193  and  _194
REMARK   83  A    between atoms: _194  and  _195
REMARK   84  A    between atoms: _199  and  _201
REMARK   85  A    between atoms: _201  and  _202
REMARK   86  A    between atoms: _204  and  _206
REMARK   87  A    between atoms: _206  and  _207
REMARK   88  A    between atoms: _206  and  _209
REMARK   89  A    between atoms: _209  and  _210
REMARK   90  A    between atoms: _210  and  _211
REMARK   91  A    between atoms: _211  and  _212
REMARK   92  A    between atoms: _221  and  _223
REMARK   93  A    between atoms: _223  and  _224
REMARK   94  A    between atoms: _223  and  _226
REMARK   95  A    between atoms: _226  and  _227
REMARK   96  A    between atoms: _227  and  _228
REMARK   97  A    between atoms: _233  and  _235
REMARK   98  A    between atoms: _235  and  _236
REMARK   99  A    between atoms: _235  and  _238
REMARK  100  A    between atoms: _238  and  _239
REMARK  101  A    between atoms: _242  and  _244
REMARK  102  A    between atoms: _244  and  _245
REMARK  103  A    between atoms: _244  and  _247
REMARK  104  A    between atoms: _250  and  _252
REMARK  105  A    between atoms: _252  and  _253
REMARK  106  A    between atoms: _252  and  _255
REMARK  107  A    between atoms: _255  and  _256
REMARK  108  A    between atoms: _258  and  _260
REMARK  109  A    between atoms: _260  and  _261
REMARK  110  A    between atoms: _260  and  _263
REMARK  111  A    between atoms: _263  and  _264
REMARK  112  A    between atoms: _266  and  _268
REMARK  113  A    between atoms: _268  and  _269
REMARK  114  A    between atoms: _268  and  _271
REMARK  115  A    between atoms: _271  and  _272
REMARK  116  A    between atoms: _278  and  _280
REMARK  117  A    between atoms: _280  and  _281
REMARK  118  A    between atoms: _280  and  _283
REMARK  119  A    between atoms: _283  and  _284
REMARK  120  A    between atoms: _287  and  _289
REMARK  121  A    between atoms: _289  and  _290
REMARK  122  A    between atoms: _289  and  _292
REMARK  123  A    between atoms: _292  and  _293
REMARK  124  A    between atoms: _296  and  _298
REMARK  125  A    between atoms: _298  and  _299
REMARK  126  A    between atoms: _298  and  _301
REMARK  127  A    between atoms: _301  and  _302
REMARK  128  A    between atoms: _305  and  _307
REMARK  129  A    between atoms: _307  and  _308
REMARK  130  A    between atoms: _307  and  _310
REMARK  131  A    between atoms: _310  and  _311
REMARK  132  A    between atoms: _311  and  _312
REMARK  133  A    between atoms: _314  and  _316
REMARK  134  A    between atoms: _316  and  _317
REMARK  135  A    between atoms: _316  and  _319
REMARK  136  A    between atoms: _321  and  _323
REMARK  137  A    between atoms: _323  and  _324
REMARK  138  A    between atoms: _327  and  _329
REMARK  139  A    between atoms: _329  and  _330
REMARK  140  A    between atoms: _332  and  _334
REMARK  141  A    between atoms: _334  and  _335
REMARK  142  A    between atoms: _334  and  _337
REMARK  143  A    between atoms: _337  and  _338
REMARK  144  A    between atoms: _343  and  _344
REMARK  145  A    between atoms: _346  and  _348
REMARK  146  A    between atoms: _348  and  _349
REMARK  147  A    between atoms: _348  and  _351
REMARK  148  A    between atoms: _351  and  _352
REMARK  149  A    between atoms: _352  and  _353
REMARK  150  A    between atoms: _356  and  _358
REMARK  151  A    between atoms: _358  and  _359
REMARK  152  A    between atoms: _358  and  _361
REMARK  153  A    between atoms: _361  and  _362
REMARK  154  A    between atoms: _365  and  _367
REMARK  155  A    between atoms: _367  and  _368
REMARK  156  A    between atoms: _371  and  _373
REMARK  157  A    between atoms: _373  and  _374
REMARK  158  A    between atoms: _373  and  _376
REMARK  159  A    between atoms: _376  and  _377
REMARK  160  A    between atoms: _377  and  _500
REMARK  161  A    between atoms: _378  and  _380
REMARK  162  A    between atoms: _380  and  _381
REMARK  163  A    between atoms: _380  and  _383
REMARK  164  A    between atoms: _383  and  _384
REMARK  165  A    between atoms: _384  and  _385
REMARK  166  A    between atoms: _390  and  _392
REMARK  167  A    between atoms: _392  and  _393
REMARK  168  A    between atoms: _395  and  _397
REMARK  169  A    between atoms: _397  and  _398
REMARK  170  A    between atoms: _397  and  _400
REMARK  171  A    between atoms: _400  and  _401
REMARK  172  A    between atoms: _404  and  _406
REMARK  173  A    between atoms: _406  and  _407
REMARK  174  A    between atoms: _406  and  _409
REMARK  175  A    between atoms: _409  and  _410
REMARK  176  A    between atoms: _412  and  _414
REMARK  177  A    between atoms: _414  and  _415
REMARK  178  A    between atoms: _417  and  _419
REMARK  179  A    between atoms: _419  and  _420
REMARK  180  A    between atoms: _422  and  _424
REMARK  181  A    between atoms: _424  and  _425
REMARK  182  A    between atoms: _424  and  _427
REMARK  183  A    between atoms: _427  and  _428
REMARK  184  A    between atoms: _433  and  _435
REMARK  185  A    between atoms: _435  and  _436
REMARK  186  A    between atoms: _435  and  _438
REMARK  187  A    between atoms: _438  and  _439
REMARK  188  A    between atoms: _442  and  _444
REMARK  189  A    between atoms: _444  and  _445
REMARK  190  A    between atoms: _444  and  _447
REMARK  191  A    between atoms: _450  and  _452
REMARK  192  A    between atoms: _452  and  _453
REMARK  193  A    between atoms: _452  and  _455
REMARK  194  A    between atoms: _455  and  _456
REMARK  195  A    between atoms: _458  and  _460
REMARK  196  A    between atoms: _460  and  _461
REMARK  197  A    between atoms: _460  and  _463
REMARK  198  A    between atoms: _463  and  _464
REMARK  199  A    between atoms: _474  and  _476
REMARK  200  A    between atoms: _476  and  _477
REMARK  201  A    between atoms: _479  and  _481
REMARK  202  A    between atoms: _481  and  _482
REMARK  203  A    between atoms: _481  and  _484
REMARK  204  A    between atoms: _484  and  _485
REMARK  205  A    between atoms: _485  and  _486
REMARK  206  A    between atoms: _489  and  _491
REMARK  207  A    between atoms: _491  and  _492
REMARK  208  A    between atoms: _494  and  _496
REMARK  209  A    between atoms: _496  and  _497
REMARK  210  A    between atoms: _496  and  _499
REMARK  211  A    between atoms: _499  and  _500
REMARK  212  A    between atoms: _501  and  _503
REMARK  213  A    between atoms: _503  and  _504
REMARK  214  A    between atoms: _507  and  _509
REMARK  215  A    between atoms: _509  and  _510
REMARK  216  A    between atoms: _509  and  _512
REMARK  217  A    between atoms: _512  and  _513
REMARK  218  A    between atoms: _513  and  _514
REMARK  219  A    between atoms: _514  and  _515
REMARK  220  A    between atoms: _524  and  _526
REMARK  221  A    between atoms: _526  and  _527
REMARK  222  A    between atoms: _526  and  _529
REMARK  223  A    between atoms: _529  and  _530
REMARK  224  A    between atoms: _530  and  _531
REMARK  225  A    between atoms: _531  and  _532
REMARK  226  A    between atoms: _532  and  _533
REMARK  227  A    between atoms: _537  and  _539
REMARK  228  A    between atoms: _539  and  _540
REMARK  229  A    between atoms: _539  and  _542
REMARK  230  A    between atoms: _542  and  _543
REMARK  231  A    between atoms: _548  and  _549
REMARK  232  A    between atoms: _551  and  _553
REMARK  233  A    between atoms: _553  and  _554
REMARK  234  A    between atoms: _556  and  _558
REMARK  235  A    between atoms: _558  and  _559
REMARK  236  A    between atoms: _558  and  _561
REMARK  237  A    between atoms: _561  and  _562
REMARK  238  A    between atoms: _565  and  _567
REMARK  239  A    between atoms: _567  and  _568
REMARK  240  A    between atoms: _567  and  _570
REMARK  241  A    between atoms: _570  and  _571
REMARK  242  A    between atoms: _576  and  _577
REMARK                            x       y       z     vdW  Elec       q    Type
REMARK                         _______ _______ _______ _____ _____    ______ ____
ROOT
ATOM      1  C   TYR A   2      12.445  33.880  49.576  0.00  0.00    +0.241 C 
ATOM      2  O   TYR A   2      11.760  33.991  50.594  0.00  0.00    -0.273 OA
ATOM      3  N   GLY A   3      13.253  32.849  49.360  0.00  0.00    -0.295 N 
ATOM      4  H   GLY A   3      13.779  32.779  48.466  0.00  0.00    +0.150 HD
ENDROOT
BRANCH   3   5
ATOM      5  CA  GLY A   3      13.402  31.822  50.369  0.00  0.00    +0.176 C 
BRANCH   5   6
ATOM      6  C   GLY A   3      14.424  32.340  51.364  0.00  0.00    +0.243 C 
ATOM      7  N   ILE A   4      14.139  32.213  52.654  0.00  0.00    -0.297 N 
ATOM      8  H   ILE A   4      13.243  31.776  52.949  0.00  0.00    +0.150 HD
ATOM      9  O   GLY A   3      15.466  32.873  50.964  0.00  0.00    -0.273 OA
BRANCH   7  10
ATOM     10  CA  ILE A   4      15.085  32.687  53.656  0.00  0.00    +0.149 C 
BRANCH  10  11
ATOM     11  C   ILE A   4      15.844  31.502  54.259  0.00  0.00    +0.241 C 
ATOM     12  O   ILE A   4      15.246  30.525  54.720  0.00  0.00    -0.273 OA
ATOM     13  N   TYR A   5      17.169  31.596  54.239  0.00  0.00    -0.298 N 
ATOM     14  H   TYR A   5      17.608  32.450  53.841  0.00  0.00    +0.150 HD
BRANCH  13  15
ATOM     15  CA  TYR A   5      18.028  30.534  54.760  0.00  0.00    +0.141 C 
BRANCH  15  16
ATOM     16  C   TYR A   5      18.908  31.015  55.895  0.00  0.00    +0.227 C 
ATOM     17  O   TYR A   5      19.245  32.197  55.975  0.00  0.00    -0.286 OA
ENDBRANCH  15  16
BRANCH  15  18
ATOM     18  CB  TYR A   5      18.943  29.994  53.658  0.00  0.00    +0.054 C 
BRANCH  18  19
ATOM     19  CG  TYR A   5      18.219  29.475  52.445  0.00  0.00    -0.020 A 
ATOM     20  CD2 TYR A   5      18.179  28.110  52.164  0.00  0.00    -0.001 A 
ATOM     21  CE2 TYR A   5      17.501  27.628  51.040  0.00  0.00    +0.036 A 
ATOM     22  CZ  TYR A   5      16.858  28.514  50.192  0.00  0.00    +0.134 A 
ATOM     23  CE1 TYR A   5      16.885  29.876  50.448  0.00  0.00    +0.036 A 
ATOM     24  CD1 TYR A   5      17.565  30.350  51.573  0.00  0.00    -0.001 A 
BRANCH  22  25
ATOM     25  OH  TYR A   5      16.174  28.043  49.105  0.00  0.00    -0.506 OA
ATOM     26  HH  TYR A   5      15.778  28.804  48.611  0.00  0.00    +0.292 HD
ENDBRANCH  22  25
ENDBRANCH  18  19
ENDBRANCH  15  18
ENDBRANCH  13  15
ENDBRANCH  10  11
BRANCH  10  27
ATOM     27  CB  ILE A   4      14.372  33.490  54.787  0.00  0.00    +0.027 C 
ATOM     28  CG2 ILE A   4      15.407  34.219  55.629  0.00  0.00    +0.002 C 
BRANCH  27  29
ATOM     29  CG1 ILE A   4      13.382  34.503  54.182  0.00  0.00    +0.002 C 
ATOM     30  CD1 ILE A   4      14.005  35.566  53.325  0.00  0.00    +0.000 C 
ENDBRANCH  27  29
ENDBRANCH  10  27
ENDBRANCH   7  10
ENDBRANCH   5   6
ENDBRANCH   3   5
BRANCH   1  31
ATOM     31  CA  TYR A   2      12.386  34.927  48.468  0.00  0.00    +0.153 C 
BRANCH  31  33
ATOM     32  C   LYS A   1      10.328  35.964  47.678  0.00  0.00    +0.238 C 
ATOM     33  N   TYR A   2      11.247  35.826  48.631  0.00  0.00    -0.297 N 
ATOM     34  H   TYR A   2      11.152  36.371  49.512  0.00  0.00    +0.150 HD
ATOM     35  O   LYS A   1      10.373  35.363  46.604  0.00  0.00    -0.274 OA
BRANCH  32  36
ATOM     36  CA  LYS A   1       9.195  36.931  47.966  0.00  0.00    +0.145 C 
BRANCH  36  37
ATOM     37  N   LYS A   1       8.742  37.532  46.718  0.00  0.00    -0.238 NA
ATOM     38  H   LYS A   1       8.438  36.917  45.937  0.00  0.00    +0.142 HD
ENDBRANCH  36  37
BRANCH  36  39
ATOM     39  CB  LYS A   1       8.039  36.194  48.650  0.00  0.00    +0.026 C 
BRANCH  39  40
ATOM     40  CG  LYS A   1       6.886  37.098  49.065  0.00  0.00    -0.000 C 
BRANCH  40  41
ATOM     41  CD  LYS A   1       7.337  38.101  50.108  0.00  0.00    -0.024 C 
BRANCH  41  42
ATOM     42  CE  LYS A   1       6.202  39.023  50.511  0.00  0.00    -0.086 C 
BRANCH  42  43
ATOM     43  NZ  LYS A   1       6.597  39.913  51.630  0.00  0.00    +0.380 N 
ATOM     44  HZ1 LYS A   1       6.862  39.336  52.454  0.00  0.00    -0.089 HD
ATOM     45  HZ2 LYS A   1       5.798  40.530  51.880  0.00  0.00    -0.089 HD
ATOM     46  HZ3 LYS A   1       7.408  40.495  51.338  0.00  0.00    -0.089 HD
ENDBRANCH  42  43
ENDBRANCH  41  42
ENDBRANCH  40  41
ENDBRANCH  39  40
ENDBRANCH  36  39
ENDBRANCH  32  36
ENDBRANCH  31  33
BRANCH  31  47
ATOM     47  CB  TYR A   2      13.690  35.729  48.459  0.00  0.00    +0.055 C 
BRANCH  47  48
ATOM     48  CG  TYR A   2      13.762  36.751  47.354  0.00  0.00    -0.020 A 
ATOM     49  CD2 TYR A   2      13.630  38.113  47.634  0.00  0.00    -0.001 A 
ATOM     50  CE2 TYR A   2      13.647  39.066  46.613  0.00  0.00    +0.036 A 
ATOM     51  CZ  TYR A   2      13.802  38.655  45.292  0.00  0.00    +0.134 A 
ATOM     52  CE1 TYR A   2      13.941  37.303  44.986  0.00  0.00    +0.036 A 
ATOM     53  CD1 TYR A   2      13.919  36.359  46.020  0.00  0.00    -0.001 A 
BRANCH  51  54
ATOM     54  OH  TYR A   2      13.809  39.591  44.282  0.00  0.00    -0.506 OA
ATOM     55  HH  TYR A   2      13.928  39.135  43.412  0.00  0.00    +0.292 HD
ENDBRANCH  51  54
ENDBRANCH  47  48
ENDBRANCH  31  47
ENDBRANCH   1  31
TORSDOF 23
REMARK  Name = ../refined-set-2016/1z6e/1z6e_pocket.pdb
REMARK  242 active torsions:
REMARK  status: ('A' for Active; 'I' for Inactive)
REMARK    1  A    between atoms: _1  and  _5
REMARK    2  A    between atoms: _5  and  _6
REMARK    3  A    between atoms: _5  and  _8
REMARK    4  A    between atoms: _8  and  _9
REMARK    5  A    between atoms: _12  and  _14
REMARK    6  A    between atoms: _14  and  _15
REMARK    7  A    between atoms: _14  and  _17
REMARK    8  A    between atoms: _20  and  _22
REMARK    9  A    between atoms: _22  and  _23
REMARK   10  A    between atoms: _22  and  _25
REMARK   11  A    between atoms: _25  and  _26
REMARK   12  A    between atoms: _31  and  _33
REMARK   13  A    between atoms: _33  and  _34
REMARK   14  A    between atoms: _33  and  _36
REMARK   15  A    between atoms: _38  and  _40
REMARK   16  A    between atoms: _40  and  _41
REMARK   17  A    between atoms: _40  and  _43
REMARK   18  A    between atoms: _43  and  _44
REMARK   19  A    between atoms: _44  and  _45
REMARK   20  A    between atoms: _50  and  _52
REMARK   21  A    between atoms: _52  and  _53
REMARK   22  A    between atoms: _52  and  _55
REMARK   23  A    between atoms: _55  and  _56
REMARK   24  A    between atoms: _62  and  _64
REMARK   25  A    between atoms: _64  and  _65
REMARK   26  A    between atoms: _64  and  _67
REMARK   27  A    between atoms: _67  and  _68
REMARK   28  A    between atoms: _71  and  _73
REMARK   29  A    between atoms: _73  and  _74
REMARK   30  A    between atoms: _73  and  _76
REMARK   31  A    between atoms: _76  and  _77
REMARK   32  A    between atoms: _77  and  _78
REMARK   33  A    between atoms: _78  and  _79
REMARK   34  A    between atoms: _79  and  _80
REMARK   35  A    between atoms: _84  and  _86
REMARK   36  A    between atoms: _86  and  _87
REMARK   37  A    between atoms: _86  and  _89
REMARK   38  A    between atoms: _89  and  _90
REMARK   39  A    between atoms: _90  and  _91
REMARK   40  A    between atoms: _94  and  _96
REMARK   41  A    between atoms: _96  and  _97
REMARK   42  A    between atoms: _96  and  _99
REMARK   43  A    between atoms: _99  and  _100
REMARK   44  A    between atoms: _103  and  _105
REMARK   45  A    between atoms: _105  and  _106
REMARK   46  A    between atoms: _105  and  _108
REMARK   47  A    between atoms: _108  and  _109
REMARK   48  A    between atoms: _114  and  _115
REMARK   49  A    between atoms: _117  and  _119
REMARK   50  A    between atoms: _119  and  _120
REMARK   51  A    between atoms: _119  and  _122
REMARK   52  A    between atoms: _122  and  _123
REMARK   53  A    between atoms: _126  and  _128
REMARK   54  A    between atoms: _128  and  _129
REMARK   55  A    between atoms: _128  and  _131
REMARK   56  A    between atoms: _131  and  _132
REMARK   57  A    between atoms: _135  and  _137
REMARK   58  A    between atoms: _137  and  _138
REMARK   59  A    between atoms: _137  and  _140
REMARK   60  A    between atoms: _143  and  _145
REMARK   61  A    between atoms: _145  and  _146
REMARK   62  A    between atoms: _148  and  _150
REMARK   63  A    between atoms: _150  and  _151
REMARK   64  A    between atoms: _150  and  _153
REMARK   65  A    between atoms: _153  and  _154
REMARK   66  A    between atoms: _154  and  _155
REMARK   67  A    between atoms: _155  and  _156
REMARK   68  A    between atoms: _165  and  _167
REMARK   69  A    between atoms: _167  and  _168
REMARK   70  A    between atoms: _167  and  _170
REMARK   71  A    between atoms: _170  and  _171
REMARK   72  A    between atoms: _176  and  _178
REMARK   73  A    between atoms: _178  and  _179
REMARK   74  A    between atoms: _178  and  _181
REMARK   75  A    between atoms: _181  and  _182
REMARK   76  A    between atoms: _182  and  _183
REMARK   77  A    between atoms: _186  and  _188
REMARK   78  A    between atoms: _188  and  _189
REMARK   79  A    between atoms: _188  and  _191
REMARK   80  A    between atoms: _191  and  _192
REMARK   81  A    between atoms: _192  and  _193
REMARK   82  A    between atoms: _193  and  _194
REMARK   83  A    between atoms: _194  and  _195
REMARK   84  A    between atoms: _199  and  _201
REMARK   85  A    between atoms: _201  and  _202
REMARK   86  A    between atoms: _204  and  _206
REMARK   87  A    between atoms: _206  and  _207
REMARK   88  A    between atoms: _206  and  _209
REMARK   89  A    between atoms: _209  and  _210
REMARK   90  A    between atoms: _210  and  _211
REMARK   91  A    between atoms: _211  and  _212
REMARK   92  A    between atoms: _221  and  _223
REMARK   93  A    between atoms: _223  and  _224
REMARK   94  A    between atoms: _223  and  _226
REMARK   95  A    between atoms: _226  and  _227
REMARK   96  A    between atoms: _227  and  _228
REMARK   97  A    between atoms: _233  and  _235
REMARK   98  A    between atoms: _235  and  _236
REMARK   99  A    between atoms: _235  and  _238
REMARK  100  A    between atoms: _238  and  _239
REMARK  101  A    between atoms: _242  and  _244
REMARK  102  A    between atoms: _244  and  _245
REMARK  103  A    between atoms: _244  and  _247
REMARK  104  A    between atoms: _250  and  _252
REMARK  105  A    between atoms: _252  and  _253
REMARK  106  A    between atoms: _252  and  _255
REMARK  107  A    between atoms: _255  and  _256
REMARK  108  A    between atoms: _258  and  _260
REMARK  109  A    between atoms: _260  and  _261
REMARK  110  A    between atoms: _260  and  _263
REMARK  111  A    between atoms: _263  and  _264
REMARK  112  A    between atoms: _266  and  _268
REMARK  113  A    between atoms: _268  and  _269
REMARK  114  A    between atoms: _268  and  _271
REMARK  115  A    between atoms: _271  and  _272
REMARK  116  A    between atoms: _278  and  _280
REMARK  117  A    between atoms: _280  and  _281
REMARK  118  A    between atoms: _280  and  _283
REMARK  119  A    between atoms: _283  and  _284
REMARK  120  A    between atoms: _287  and  _289
REMARK  121  A    between atoms: _289  and  _290
REMARK  122  A    between atoms: _289  and  _292
REMARK  123  A    between atoms: _292  and  _293
REMARK  124  A    between atoms: _296  and  _298
REMARK  125  A    between atoms: _298  and  _299
REMARK  126  A    between atoms: _298  and  _301
REMARK  127  A    between atoms: _301  and  _302
REMARK  128  A    between atoms: _305  and  _307
REMARK  129  A    between atoms: _307  and  _308
REMARK  130  A    between atoms: _307  and  _310
REMARK  131  A    between atoms: _310  and  _311
REMARK  132  A    between atoms: _311  and  _312
REMARK  133  A    between atoms: _314  and  _316
REMARK  134  A    between atoms: _316  and  _317
REMARK  135  A    between atoms: _316  and  _319
REMARK  136  A    between atoms: _321  and  _323
REMARK  137  A    between atoms: _323  and  _324
REMARK  138  A    between atoms: _327  and  _329
REMARK  139  A    between atoms: _329  and  _330
REMARK  140  A    between atoms: _332  and  _334
REMARK  141  A    between atoms: _334  and  _335
REMARK  142  A    between atoms: _334  and  _337
REMARK  143  A    between atoms: _337  and  _338
REMARK  144  A    between atoms: _343  and  _344
REMARK  145  A    between atoms: _346  and  _348
REMARK  146  A    between atoms: _348  and  _349
REMARK  147  A    between atoms: _348  and  _351
REMARK  148  A    between atoms: _351  and  _352
REMARK  149  A    between atoms: _352  and  _353
REMARK  150  A    between atoms: _356  and  _358
REMARK  151  A    between atoms: _358  and  _359
REMARK  152  A    between atoms: _358  and  _361
REMARK  153  A    between atoms: _361  and  _362
REMARK  154  A    between atoms: _365  and  _367
REMARK  155  A    between atoms: _367  and  _368
REMARK  156  A    between atoms: _371  and  _373
REMARK  157  A    between atoms: _373  and  _374
REMARK  158  A    between atoms: _373  and  _376
REMARK  159  A    between atoms: _376  and  _377
REMARK  160  A    between atoms: _377  and  _500
REMARK  161  A    between atoms: _378  and  _380
REMARK  162  A    between atoms: _380  and  _381
REMARK  163  A    between atoms: _380  and  _383
REMARK  164  A    between atoms: _383  and  _384
REMARK  165  A    between atoms: _384  and  _385
REMARK  166  A    between atoms: _390  and  _392
REMARK  167  A    between atoms: _392  and  _393
REMARK  168  A    between atoms: _395  and  _397
REMARK  169  A    between atoms: _397  and  _398
REMARK  170  A    between atoms: _397  and  _400
REMARK  171  A    between atoms: _400  and  _401
REMARK  172  A    between atoms: _404  and  _406
REMARK  173  A    between atoms: _406  and  _407
REMARK  174  A    between atoms: _406  and  _409
REMARK  175  A    between atoms: _409  and  _410
REMARK  176  A    between atoms: _412  and  _414
REMARK  177  A    between atoms: _414  and  _415
REMARK  178  A    between atoms: _417  and  _419
REMARK  179  A    between atoms: _419  and  _420
REMARK  180  A    between atoms: _422  and  _424
REMARK  181  A    between atoms: _424  and  _425
REMARK  182  A    between atoms: _424  and  _427
REMARK  183  A    between atoms: _427  and  _428
REMARK  184  A    between atoms: _433  and  _435
REMARK  185  A    between atoms: _435  and  _436
REMARK  186  A    between atoms: _435  and  _438
REMARK  187  A    between atoms: _438  and  _439
REMARK  188  A    between atoms: _442  and  _444
REMARK  189  A    between atoms: _444  and  _445
REMARK  190  A    between atoms: _444  and  _447
REMARK  191  A    between atoms: _450  and  _452
REMARK  192  A    between atoms: _452  and  _453
REMARK  193  A    between atoms: _452  and  _455
REMARK  194  A    between atoms: _455  and  _456
REMARK  195  A    between atoms: _458  and  _460
REMARK  196  A    between atoms: _460  and  _461
REMARK  197  A    between atoms: _460  and  _463
REMARK  198  A    between atoms: _463  and  _464
REMARK  199  A    between atoms: _474  and  _476
REMARK  200  A    between atoms: _476  and  _477
REMARK  201  A    between atoms: _479  and  _481
REMARK  202  A    between atoms: _481  and  _482
REMARK  203  A    between atoms: _481  and  _484
REMARK  204  A    between atoms: _484  and  _485
REMARK  205  A    between atoms: _485  and  _486
REMARK  206  A    between atoms: _489  and  _491
REMARK  207  A    between atoms: _491  and  _492
REMARK  208  A    between atoms: _494  and  _496
REMARK  209  A    between atoms: _496  and  _497
REMARK  210  A    between atoms: _496  and  _499
REMARK  211  A    between atoms: _499  and  _500
REMARK  212  A    between atoms: _501  and  _503
REMARK  213  A    between atoms: _503  and  _504
REMARK  214  A    between atoms: _507  and  _509
REMARK  215  A    between atoms: _509  and  _510
REMARK  216  A    between atoms: _509  and  _512
REMARK  217  A    between atoms: _512  and  _513
REMARK  218  A    between atoms: _513  and  _514
REMARK  219  A    between atoms: _514  and  _515
REMARK  220  A    between atoms: _524  and  _526
REMARK  221  A    between atoms: _526  and  _527
REMARK  222  A    between atoms: _526  and  _529
REMARK  223  A    between atoms: _529  and  _530
REMARK  224  A    between atoms: _530  and  _531
REMARK  225  A    between atoms: _531  and  _532
REMARK  226  A    between atoms: _532  and  _533
REMARK  227  A    between atoms: _537  and  _539
REMARK  228  A    between atoms: _539  and  _540
REMARK  229  A    between atoms: _539  and  _542
REMARK  230  A    between atoms: _542  and  _543
REMARK  231  A    between atoms: _548  and  _549
REMARK  232  A    between atoms: _551  and  _553
REMARK  233  A    between atoms: _553  and  _554
REMARK  234  A    between atoms: _556  and  _558
REMARK  235  A    between atoms: _558  and  _559
REMARK  236  A    between atoms: _558  and  _561
REMARK  237  A    between atoms: _561  and  _562
REMARK  238  A    between atoms: _565  and  _567
REMARK  239  A    between atoms: _567  and  _568
REMARK  240  A    between atoms: _567  and  _570
REMARK  241  A    between atoms: _570  and  _571
REMARK  242  A    between atoms: _576  and  _577
REMARK                            x       y       z     vdW  Elec       q    Type
REMARK                         _______ _______ _______ _____ _____    ______ ____
ROOT
ATOM      1  O   HOH     1       9.309  34.901  44.324  0.00  0.00    +0.000 OA
ENDROOT
TORSDOF 0
REMARK  Name = ../refined-set-2016/1z6e/1z6e_pocket.pdb
REMARK  242 active torsions:
REMARK  status: ('A' for Active; 'I' for Inactive)
REMARK    1  A    between atoms: _1  and  _5
REMARK    2  A    between atoms: _5  and  _6
REMARK    3  A    between atoms: _5  and  _8
REMARK    4  A    between atoms: _8  and  _9
REMARK    5  A    between atoms: _12  and  _14
REMARK    6  A    between atoms: _14  and  _15
REMARK    7  A    between atoms: _14  and  _17
REMARK    8  A    between atoms: _20  and  _22
REMARK    9  A    between atoms: _22  and  _23
REMARK   10  A    between atoms: _22  and  _25
REMARK   11  A    between atoms: _25  and  _26
REMARK   12  A    between atoms: _31  and  _33
REMARK   13  A    between atoms: _33  and  _34
REMARK   14  A    between atoms: _33  and  _36
REMARK   15  A    between atoms: _38  and  _40
REMARK   16  A    between atoms: _40  and  _41
REMARK   17  A    between atoms: _40  and  _43
REMARK   18  A    between atoms: _43  and  _44
REMARK   19  A    between atoms: _44  and  _45
REMARK   20  A    between atoms: _50  and  _52
REMARK   21  A    between atoms: _52  and  _53
REMARK   22  A    between atoms: _52  and  _55
REMARK   23  A    between atoms: _55  and  _56
REMARK   24  A    between atoms: _62  and  _64
REMARK   25  A    between atoms: _64  and  _65
REMARK   26  A    between atoms: _64  and  _67
REMARK   27  A    between atoms: _67  and  _68
REMARK   28  A    between atoms: _71  and  _73
REMARK   29  A    between atoms: _73  and  _74
REMARK   30  A    between atoms: _73  and  _76
REMARK   31  A    between atoms: _76  and  _77
REMARK   32  A    between atoms: _77  and  _78
REMARK   33  A    between atoms: _78  and  _79
REMARK   34  A    between atoms: _79  and  _80
REMARK   35  A    between atoms: _84  and  _86
REMARK   36  A    between atoms: _86  and  _87
REMARK   37  A    between atoms: _86  and  _89
REMARK   38  A    between atoms: _89  and  _90
REMARK   39  A    between atoms: _90  and  _91
REMARK   40  A    between atoms: _94  and  _96
REMARK   41  A    between atoms: _96  and  _97
REMARK   42  A    between atoms: _96  and  _99
REMARK   43  A    between atoms: _99  and  _100
REMARK   44  A    between atoms: _103  and  _105
REMARK   45  A    between atoms: _105  and  _106
REMARK   46  A    between atoms: _105  and  _108
REMARK   47  A    between atoms: _108  and  _109
REMARK   48  A    between atoms: _114  and  _115
REMARK   49  A    between atoms: _117  and  _119
REMARK   50  A    between atoms: _119  and  _120
REMARK   51  A    between atoms: _119  and  _122
REMARK   52  A    between atoms: _122  and  _123
REMARK   53  A    between atoms: _126  and  _128
REMARK   54  A    between atoms: _128  and  _129
REMARK   55  A    between atoms: _128  and  _131
REMARK   56  A    between atoms: _131  and  _132
REMARK   57  A    between atoms: _135  and  _137
REMARK   58  A    between atoms: _137  and  _138
REMARK   59  A    between atoms: _137  and  _140
REMARK   60  A    between atoms: _143  and  _145
REMARK   61  A    between atoms: _145  and  _146
REMARK   62  A    between atoms: _148  and  _150
REMARK   63  A    between atoms: _150  and  _151
REMARK   64  A    between atoms: _150  and  _153
REMARK   65  A    between atoms: _153  and  _154
REMARK   66  A    between atoms: _154  and  _155
REMARK   67  A    between atoms: _155  and  _156
REMARK   68  A    between atoms: _165  and  _167
REMARK   69  A    between atoms: _167  and  _168
REMARK   70  A    between atoms: _167  and  _170
REMARK   71  A    between atoms: _170  and  _171
REMARK   72  A    between atoms: _176  and  _178
REMARK   73  A    between atoms: _178  and  _179
REMARK   74  A    between atoms: _178  and  _181
REMARK   75  A    between atoms: _181  and  _182
REMARK   76  A    between atoms: _182  and  _183
REMARK   77  A    between atoms: _186  and  _188
REMARK   78  A    between atoms: _188  and  _189
REMARK   79  A    between atoms: _188  and  _191
REMARK   80  A    between atoms: _191  and  _192
REMARK   81  A    between atoms: _192  and  _193
REMARK   82  A    between atoms: _193  and  _194
REMARK   83  A    between atoms: _194  and  _195
REMARK   84  A    between atoms: _199  and  _201
REMARK   85  A    between atoms: _201  and  _202
REMARK   86  A    between atoms: _204  and  _206
REMARK   87  A    between atoms: _206  and  _207
REMARK   88  A    between atoms: _206  and  _209
REMARK   89  A    between atoms: _209  and  _210
REMARK   90  A    between atoms: _210  and  _211
REMARK   91  A    between atoms: _211  and  _212
REMARK   92  A    between atoms: _221  and  _223
REMARK   93  A    between atoms: _223  and  _224
REMARK   94  A    between atoms: _223  and  _226
REMARK   95  A    between atoms: _226  and  _227
REMARK   96  A    between atoms: _227  and  _228
REMARK   97  A    between atoms: _233  and  _235
REMARK   98  A    between atoms: _235  and  _236
REMARK   99  A    between atoms: _235  and  _238
REMARK  100  A    between atoms: _238  and  _239
REMARK  101  A    between atoms: _242  and  _244
REMARK  102  A    between atoms: _244  and  _245
REMARK  103  A    between atoms: _244  and  _247
REMARK  104  A    between atoms: _250  and  _252
REMARK  105  A    between atoms: _252  and  _253
REMARK  106  A    between atoms: _252  and  _255
REMARK  107  A    between atoms: _255  and  _256
REMARK  108  A    between atoms: _258  and  _260
REMARK  109  A    between atoms: _260  and  _261
REMARK  110  A    between atoms: _260  and  _263
REMARK  111  A    between atoms: _263  and  _264
REMARK  112  A    between atoms: _266  and  _268
REMARK  113  A    between atoms: _268  and  _269
REMARK  114  A    between atoms: _268  and  _271
REMARK  115  A    between atoms: _271  and  _272
REMARK  116  A    between atoms: _278  and  _280
REMARK  117  A    between atoms: _280  and  _281
REMARK  118  A    between atoms: _280  and  _283
REMARK  119  A    between atoms: _283  and  _284
REMARK  120  A    between atoms: _287  and  _289
REMARK  121  A    between atoms: _289  and  _290
REMARK  122  A    between atoms: _289  and  _292
REMARK  123  A    between atoms: _292  and  _293
REMARK  124  A    between atoms: _296  and  _298
REMARK  125  A    between atoms: _298  and  _299
REMARK  126  A    between atoms: _298  and  _301
REMARK  127  A    between atoms: _301  and  _302
REMARK  128  A    between atoms: _305  and  _307
REMARK  129  A    between atoms: _307  and  _308
REMARK  130  A    between atoms: _307  and  _310
REMARK  131  A    between atoms: _310  and  _311
REMARK  132  A    between atoms: _311  and  _312
REMARK  133  A    between atoms: _314  and  _316
REMARK  134  A    between atoms: _316  and  _317
REMARK  135  A    between atoms: _316  and  _319
REMARK  136  A    between atoms: _321  and  _323
REMARK  137  A    between atoms: _323  and  _324
REMARK  138  A    between atoms: _327  and  _329
REMARK  139  A    between atoms: _329  and  _330
REMARK  140  A    between atoms: _332  and  _334
REMARK  141  A    between atoms: _334  and  _335
REMARK  142  A    between atoms: _334  and  _337
REMARK  143  A    between atoms: _337  and  _338
REMARK  144  A    between atoms: _343  and  _344
REMARK  145  A    between atoms: _346  and  _348
REMARK  146  A    between atoms: _348  and  _349
REMARK  147  A    between atoms: _348  and  _351
REMARK  148  A    between atoms: _351  and  _352
REMARK  149  A    between atoms: _352  and  _353
REMARK  150  A    between atoms: _356  and  _358
REMARK  151  A    between atoms: _358  and  _359
REMARK  152  A    between atoms: _358  and  _361
REMARK  153  A    between atoms: _361  and  _362
REMARK  154  A    between atoms: _365  and  _367
REMARK  155  A    between atoms: _367  and  _368
REMARK  156  A    between atoms: _371  and  _373
REMARK  157  A    between atoms: _373  and  _374
REMARK  158  A    between atoms: _373  and  _376
REMARK  159  A    between atoms: _376  and  _377
REMARK  160  A    between atoms: _377  and  _500
REMARK  161  A    between atoms: _378  and  _380
REMARK  162  A    between atoms: _380  and  _381
REMARK  163  A    between atoms: _380  and  _383
REMARK  164  A    between atoms: _383  and  _384
REMARK  165  A    between atoms: _384  and  _385
REMARK  166  A    between atoms: _390  and  _392
REMARK  167  A    between atoms: _392  and  _393
REMARK  168  A    between atoms: _395  and  _397
REMARK  169  A    between atoms: _397  and  _398
REMARK  170  A    between atoms: _397  and  _400
REMARK  171  A    between atoms: _400  and  _401
REMARK  172  A    between atoms: _404  and  _406
REMARK  173  A    between atoms: _406  and  _407
REMARK  174  A    between atoms: _406  and  _409
REMARK  175  A    between atoms: _409  and  _410
REMARK  176  A    between atoms: _412  and  _414
REMARK  177  A    between atoms: _414  and  _415
REMARK  178  A    between atoms: _417  and  _419
REMARK  179  A    between atoms: _419  and  _420
REMARK  180  A    between atoms: _422  and  _424
REMARK  181  A    between atoms: _424  and  _425
REMARK  182  A    between atoms: _424  and  _427
REMARK  183  A    between atoms: _427  and  _428
REMARK  184  A    between atoms: _433  and  _435
REMARK  185  A    between atoms: _435  and  _436
REMARK  186  A    between atoms: _435  and  _438
REMARK  187  A    between atoms: _438  and  _439
REMARK  188  A    between atoms: _442  and  _444
REMARK  189  A    between atoms: _444  and  _445
REMARK  190  A    between atoms: _444  and  _447
REMARK  191  A    between atoms: _450  and  _452
REMARK  192  A    between atoms: _452  and  _453
REMARK  193  A    between atoms: _452  and  _455
REMARK  194  A    between atoms: _455  and  _456
REMARK  195  A    between atoms: _458  and  _460
REMARK  196  A    between atoms: _460  and  _461
REMARK  197  A    between atoms: _460  and  _463
REMARK  198  A    between atoms: _463  and  _464
REMARK  199  A    between atoms: _474  and  _476
REMARK  200  A    between atoms: _476  and  _477
REMARK  201  A    between atoms: _479  and  _481
REMARK  202  A    between atoms: _481  and  _482
REMARK  203  A    between atoms: _481  and  _484
REMARK  204  A    between atoms: _484  and  _485
REMARK  205  A    between atoms: _485  and  _486
REMARK  206  A    between atoms: _489  and  _491
REMARK  207  A    between atoms: _491  and  _492
REMARK  208  A    between atoms: _494  and  _496
REMARK  209  A    between atoms: _496  and  _497
REMARK  210  A    between atoms: _496  and  _499
REMARK  211  A    between atoms: _499  and  _500
REMARK  212  A    between atoms: _501  and  _503
REMARK  213  A    between atoms: _503  and  _504
REMARK  214  A    between atoms: _507  and  _509
REMARK  215  A    between atoms: _509  and  _510
REMARK  216  A    between atoms: _509  and  _512
REMARK  217  A    between atoms: _512  and  _513
REMARK  218  A    between atoms: _513  and  _514
REMARK  219  A    between atoms: _514  and  _515
REMARK  220  A    between atoms: _524  and  _526
REMARK  221  A    between atoms: _526  and  _527
REMARK  222  A    between atoms: _526  and  _529
REMARK  223  A    between atoms: _529  and  _530
REMARK  224  A    between atoms: _530  and  _531
REMARK  225  A    between atoms: _531  and  _532
REMARK  226  A    between atoms: _532  and  _533
REMARK  227  A    between atoms: _537  and  _539
REMARK  228  A    between atoms: _539  and  _540
REMARK  229  A    between atoms: _539  and  _542
REMARK  230  A    between atoms: _542  and  _543
REMARK  231  A    between atoms: _548  and  _549
REMARK  232  A    between atoms: _551  and  _553
REMARK  233  A    between atoms: _553  and  _554
REMARK  234  A    between atoms: _556  and  _558
REMARK  235  A    between atoms: _558  and  _559
REMARK  236  A    between atoms: _558  and  _561
REMARK  237  A    between atoms: _561  and  _562
REMARK  238  A    between atoms: _565  and  _567
REMARK  239  A    between atoms: _567  and  _568
REMARK  240  A    between atoms: _567  and  _570
REMARK  241  A    between atoms: _570  and  _571
REMARK  242  A    between atoms: _576  and  _577
REMARK                            x       y       z     vdW  Elec       q    Type
REMARK                         _______ _______ _______ _____ _____    ______ ____
ROOT
ATOM      1  O   HOH     1      10.326  37.339  53.424  0.00  0.00    +0.000 OA
ENDROOT
TORSDOF 0
REMARK  Name = ../refined-set-2016/1z6e/1z6e_pocket.pdb
REMARK  242 active torsions:
REMARK  status: ('A' for Active; 'I' for Inactive)
REMARK    1  A    between atoms: _1  and  _5
REMARK    2  A    between atoms: _5  and  _6
REMARK    3  A    between atoms: _5  and  _8
REMARK    4  A    between atoms: _8  and  _9
REMARK    5  A    between atoms: _12  and  _14
REMARK    6  A    between atoms: _14  and  _15
REMARK    7  A    between atoms: _14  and  _17
REMARK    8  A    between atoms: _20  and  _22
REMARK    9  A    between atoms: _22  and  _23
REMARK   10  A    between atoms: _22  and  _25
REMARK   11  A    between atoms: _25  and  _26
REMARK   12  A    between atoms: _31  and  _33
REMARK   13  A    between atoms: _33  and  _34
REMARK   14  A    between atoms: _33  and  _36
REMARK   15  A    between atoms: _38  and  _40
REMARK   16  A    between atoms: _40  and  _41
REMARK   17  A    between atoms: _40  and  _43
REMARK   18  A    between atoms: _43  and  _44
REMARK   19  A    between atoms: _44  and  _45
REMARK   20  A    between atoms: _50  and  _52
REMARK   21  A    between atoms: _52  and  _53
REMARK   22  A    between atoms: _52  and  _55
REMARK   23  A    between atoms: _55  and  _56
REMARK   24  A    between atoms: _62  and  _64
REMARK   25  A    between atoms: _64  and  _65
REMARK   26  A    between atoms: _64  and  _67
REMARK   27  A    between atoms: _67  and  _68
REMARK   28  A    between atoms: _71  and  _73
REMARK   29  A    between atoms: _73  and  _74
REMARK   30  A    between atoms: _73  and  _76
REMARK   31  A    between atoms: _76  and  _77
REMARK   32  A    between atoms: _77  and  _78
REMARK   33  A    between atoms: _78  and  _79
REMARK   34  A    between atoms: _79  and  _80
REMARK   35  A    between atoms: _84  and  _86
REMARK   36  A    between atoms: _86  and  _87
REMARK   37  A    between atoms: _86  and  _89
REMARK   38  A    between atoms: _89  and  _90
REMARK   39  A    between atoms: _90  and  _91
REMARK   40  A    between atoms: _94  and  _96
REMARK   41  A    between atoms: _96  and  _97
REMARK   42  A    between atoms: _96  and  _99
REMARK   43  A    between atoms: _99  and  _100
REMARK   44  A    between atoms: _103  and  _105
REMARK   45  A    between atoms: _105  and  _106
REMARK   46  A    between atoms: _105  and  _108
REMARK   47  A    between atoms: _108  and  _109
REMARK   48  A    between atoms: _114  and  _115
REMARK   49  A    between atoms: _117  and  _119
REMARK   50  A    between atoms: _119  and  _120
REMARK   51  A    between atoms: _119  and  _122
REMARK   52  A    between atoms: _122  and  _123
REMARK   53  A    between atoms: _126  and  _128
REMARK   54  A    between atoms: _128  and  _129
REMARK   55  A    between atoms: _128  and  _131
REMARK   56  A    between atoms: _131  and  _132
REMARK   57  A    between atoms: _135  and  _137
REMARK   58  A    between atoms: _137  and  _138
REMARK   59  A    between atoms: _137  and  _140
REMARK   60  A    between atoms: _143  and  _145
REMARK   61  A    between atoms: _145  and  _146
REMARK   62  A    between atoms: _148  and  _150
REMARK   63  A    between atoms: _150  and  _151
REMARK   64  A    between atoms: _150  and  _153
REMARK   65  A    between atoms: _153  and  _154
REMARK   66  A    between atoms: _154  and  _155
REMARK   67  A    between atoms: _155  and  _156
REMARK   68  A    between atoms: _165  and  _167
REMARK   69  A    between atoms: _167  and  _168
REMARK   70  A    between atoms: _167  and  _170
REMARK   71  A    between atoms: _170  and  _171
REMARK   72  A    between atoms: _176  and  _178
REMARK   73  A    between atoms: _178  and  _179
REMARK   74  A    between atoms: _178  and  _181
REMARK   75  A    between atoms: _181  and  _182
REMARK   76  A    between atoms: _182  and  _183
REMARK   77  A    between atoms: _186  and  _188
REMARK   78  A    between atoms: _188  and  _189
REMARK   79  A    between atoms: _188  and  _191
REMARK   80  A    between atoms: _191  and  _192
REMARK   81  A    between atoms: _192  and  _193
REMARK   82  A    between atoms: _193  and  _194
REMARK   83  A    between atoms: _194  and  _195
REMARK   84  A    between atoms: _199  and  _201
REMARK   85  A    between atoms: _201  and  _202
REMARK   86  A    between atoms: _204  and  _206
REMARK   87  A    between atoms: _206  and  _207
REMARK   88  A    between atoms: _206  and  _209
REMARK   89  A    between atoms: _209  and  _210
REMARK   90  A    between atoms: _210  and  _211
REMARK   91  A    between atoms: _211  and  _212
REMARK   92  A    between atoms: _221  and  _223
REMARK   93  A    between atoms: _223  and  _224
REMARK   94  A    between atoms: _223  and  _226
REMARK   95  A    between atoms: _226  and  _227
REMARK   96  A    between atoms: _227  and  _228
REMARK   97  A    between atoms: _233  and  _235
REMARK   98  A    between atoms: _235  and  _236
REMARK   99  A    between atoms: _235  and  _238
REMARK  100  A    between atoms: _238  and  _239
REMARK  101  A    between atoms: _242  and  _244
REMARK  102  A    between atoms: _244  and  _245
REMARK  103  A    between atoms: _244  and  _247
REMARK  104  A    between atoms: _250  and  _252
REMARK  105  A    between atoms: _252  and  _253
REMARK  106  A    between atoms: _252  and  _255
REMARK  107  A    between atoms: _255  and  _256
REMARK  108  A    between atoms: _258  and  _260
REMARK  109  A    between atoms: _260  and  _261
REMARK  110  A    between atoms: _260  and  _263
REMARK  111  A    between atoms: _263  and  _264
REMARK  112  A    between atoms: _266  and  _268
REMARK  113  A    between atoms: _268  and  _269
REMARK  114  A    between atoms: _268  and  _271
REMARK  115  A    between atoms: _271  and  _272
REMARK  116  A    between atoms: _278  and  _280
REMARK  117  A    between atoms: _280  and  _281
REMARK  118  A    between atoms: _280  and  _283
REMARK  119  A    between atoms: _283  and  _284
REMARK  120  A    between atoms: _287  and  _289
REMARK  121  A    between atoms: _289  and  _290
REMARK  122  A    between atoms: _289  and  _292
REMARK  123  A    between atoms: _292  and  _293
REMARK  124  A    between atoms: _296  and  _298
REMARK  125  A    between atoms: _298  and  _299
REMARK  126  A    between atoms: _298  and  _301
REMARK  127  A    between atoms: _301  and  _302
REMARK  128  A    between atoms: _305  and  _307
REMARK  129  A    between atoms: _307  and  _308
REMARK  130  A    between atoms: _307  and  _310
REMARK  131  A    between atoms: _310  and  _311
REMARK  132  A    between atoms: _311  and  _312
REMARK  133  A    between atoms: _314  and  _316
REMARK  134  A    between atoms: _316  and  _317
REMARK  135  A    between atoms: _316  and  _319
REMARK  136  A    between atoms: _321  and  _323
REMARK  137  A    between atoms: _323  and  _324
REMARK  138  A    between atoms: _327  and  _329
REMARK  139  A    between atoms: _329  and  _330
REMARK  140  A    between atoms: _332  and  _334
REMARK  141  A    between atoms: _334  and  _335
REMARK  142  A    between atoms: _334  and  _337
REMARK  143  A    between atoms: _337  and  _338
REMARK  144  A    between atoms: _343  and  _344
REMARK  145  A    between atoms: _346  and  _348
REMARK  146  A    between atoms: _348  and  _349
REMARK  147  A    between atoms: _348  and  _351
REMARK  148  A    between atoms: _351  and  _352
REMARK  149  A    between atoms: _352  and  _353
REMARK  150  A    between atoms: _356  and  _358
REMARK  151  A    between atoms: _358  and  _359
REMARK  152  A    between atoms: _358  and  _361
REMARK  153  A    between atoms: _361  and  _362
REMARK  154  A    between atoms: _365  and  _367
REMARK  155  A    between atoms: _367  and  _368
REMARK  156  A    between atoms: _371  and  _373
REMARK  157  A    between atoms: _373  and  _374
REMARK  158  A    between atoms: _373  and  _376
REMARK  159  A    between atoms: _376  and  _377
REMARK  160  A    between atoms: _377  and  _500
REMARK  161  A    between atoms: _378  and  _380
REMARK  162  A    between atoms: _380  and  _381
REMARK  163  A    between atoms: _380  and  _383
REMARK  164  A    between atoms: _383  and  _384
REMARK  165  A    between atoms: _384  and  _385
REMARK  166  A    between atoms: _390  and  _392
REMARK  167  A    between atoms: _392  and  _393
REMARK  168  A    between atoms: _395  and  _397
REMARK  169  A    between atoms: _397  and  _398
REMARK  170  A    between atoms: _397  and  _400
REMARK  171  A    between atoms: _400  and  _401
REMARK  172  A    between atoms: _404  and  _406
REMARK  173  A    between atoms: _406  and  _407
REMARK  174  A    between atoms: _406  and  _409
REMARK  175  A    between atoms: _409  and  _410
REMARK  176  A    between atoms: _412  and  _414
REMARK  177  A    between atoms: _414  and  _415
REMARK  178  A    between atoms: _417  and  _419
REMARK  179  A    between atoms: _419  and  _420
REMARK  180  A    between atoms: _422  and  _424
REMARK  181  A    between atoms: _424  and  _425
REMARK  182  A    between atoms: _424  and  _427
REMARK  183  A    between atoms: _427  and  _428
REMARK  184  A    between atoms: _433  and  _435
REMARK  185  A    between atoms: _435  and  _436
REMARK  186  A    between atoms: _435  and  _438
REMARK  187  A    between atoms: _438  and  _439
REMARK  188  A    between atoms: _442  and  _444
REMARK  189  A    between atoms: _444  and  _445
REMARK  190  A    between atoms: _444  and  _447
REMARK  191  A    between atoms: _450  and  _452
REMARK  192  A    between atoms: _452  and  _453
REMARK  193  A    between atoms: _452  and  _455
REMARK  194  A    between atoms: _455  and  _456
REMARK  195  A    between atoms: _458  and  _460
REMARK  196  A    between atoms: _460  and  _461
REMARK  197  A    between atoms: _460  and  _463
REMARK  198  A    between atoms: _463  and  _464
REMARK  199  A    between atoms: _474  and  _476
REMARK  200  A    between atoms: _476  and  _477
REMARK  201  A    between atoms: _479  and  _481
REMARK  202  A    between atoms: _481  and  _482
REMARK  203  A    between atoms: _481  and  _484
REMARK  204  A    between atoms: _484  and  _485
REMARK  205  A    between atoms: _485  and  _486
REMARK  206  A    between atoms: _489  and  _491
REMARK  207  A    between atoms: _491  and  _492
REMARK  208  A    between atoms: _494  and  _496
REMARK  209  A    between atoms: _496  and  _497
REMARK  210  A    between atoms: _496  and  _499
REMARK  211  A    between atoms: _499  and  _500
REMARK  212  A    between atoms: _501  and  _503
REMARK  213  A    between atoms: _503  and  _504
REMARK  214  A    between atoms: _507  and  _509
REMARK  215  A    between atoms: _509  and  _510
REMARK  216  A    between atoms: _509  and  _512
REMARK  217  A    between atoms: _512  and  _513
REMARK  218  A    between atoms: _513  and  _514
REMARK  219  A    between atoms: _514  and  _515
REMARK  220  A    between atoms: _524  and  _526
REMARK  221  A    between atoms: _526  and  _527
REMARK  222  A    between atoms: _526  and  _529
REMARK  223  A    between atoms: _529  and  _530
REMARK  224  A    between atoms: _530  and  _531
REMARK  225  A    between atoms: _531  and  _532
REMARK  226  A    between atoms: _532  and  _533
REMARK  227  A    between atoms: _537  and  _539
REMARK  228  A    between atoms: _539  and  _540
REMARK  229  A    between atoms: _539  and  _542
REMARK  230  A    between atoms: _542  and  _543
REMARK  231  A    between atoms: _548  and  _549
REMARK  232  A    between atoms: _551  and  _553
REMARK  233  A    between atoms: _553  and  _554
REMARK  234  A    between atoms: _556  and  _558
REMARK  235  A    between atoms: _558  and  _559
REMARK  236  A    between atoms: _558  and  _561
REMARK  237  A    between atoms: _561  and  _562
REMARK  238  A    between atoms: _565  and  _567
REMARK  239  A    between atoms: _567  and  _568
REMARK  240  A    between atoms: _567  and  _570
REMARK  241  A    between atoms: _570  and  _571
REMARK  242  A    between atoms: _576  and  _577
REMARK                            x       y       z     vdW  Elec       q    Type
REMARK                         _______ _______ _______ _____ _____    ______ ____
ROOT
ATOM      1  O   HOH     1      14.712  29.641  47.772  0.00  0.00    +0.000 OA
ENDROOT
TORSDOF 0
REMARK  Name = ../refined-set-2016/1z6e/1z6e_pocket.pdb
REMARK  242 active torsions:
REMARK  status: ('A' for Active; 'I' for Inactive)
REMARK    1  A    between atoms: _1  and  _5
REMARK    2  A    between atoms: _5  and  _6
REMARK    3  A    between atoms: _5  and  _8
REMARK    4  A    between atoms: _8  and  _9
REMARK    5  A    between atoms: _12  and  _14
REMARK    6  A    between atoms: _14  and  _15
REMARK    7  A    between atoms: _14  and  _17
REMARK    8  A    between atoms: _20  and  _22
REMARK    9  A    between atoms: _22  and  _23
REMARK   10  A    between atoms: _22  and  _25
REMARK   11  A    between atoms: _25  and  _26
REMARK   12  A    between atoms: _31  and  _33
REMARK   13  A    between atoms: _33  and  _34
REMARK   14  A    between atoms: _33  and  _36
REMARK   15  A    between atoms: _38  and  _40
REMARK   16  A    between atoms: _40  and  _41
REMARK   17  A    between atoms: _40  and  _43
REMARK   18  A    between atoms: _43  and  _44
REMARK   19  A    between atoms: _44  and  _45
REMARK   20  A    between atoms: _50  and  _52
REMARK   21  A    between atoms: _52  and  _53
REMARK   22  A    between atoms: _52  and  _55
REMARK   23  A    between atoms: _55  and  _56
REMARK   24  A    between atoms: _62  and  _64
REMARK   25  A    between atoms: _64  and  _65
REMARK   26  A    between atoms: _64  and  _67
REMARK   27  A    between atoms: _67  and  _68
REMARK   28  A    between atoms: _71  and  _73
REMARK   29  A    between atoms: _73  and  _74
REMARK   30  A    between atoms: _73  and  _76
REMARK   31  A    between atoms: _76  and  _77
REMARK   32  A    between atoms: _77  and  _78
REMARK   33  A    between atoms: _78  and  _79
REMARK   34  A    between atoms: _79  and  _80
REMARK   35  A    between atoms: _84  and  _86
REMARK   36  A    between atoms: _86  and  _87
REMARK   37  A    between atoms: _86  and  _89
REMARK   38  A    between atoms: _89  and  _90
REMARK   39  A    between atoms: _90  and  _91
REMARK   40  A    between atoms: _94  and  _96
REMARK   41  A    between atoms: _96  and  _97
REMARK   42  A    between atoms: _96  and  _99
REMARK   43  A    between atoms: _99  and  _100
REMARK   44  A    between atoms: _103  and  _105
REMARK   45  A    between atoms: _105  and  _106
REMARK   46  A    between atoms: _105  and  _108
REMARK   47  A    between atoms: _108  and  _109
REMARK   48  A    between atoms: _114  and  _115
REMARK   49  A    between atoms: _117  and  _119
REMARK   50  A    between atoms: _119  and  _120
REMARK   51  A    between atoms: _119  and  _122
REMARK   52  A    between atoms: _122  and  _123
REMARK   53  A    between atoms: _126  and  _128
REMARK   54  A    between atoms: _128  and  _129
REMARK   55  A    between atoms: _128  and  _131
REMARK   56  A    between atoms: _131  and  _132
REMARK   57  A    between atoms: _135  and  _137
REMARK   58  A    between atoms: _137  and  _138
REMARK   59  A    between atoms: _137  and  _140
REMARK   60  A    between atoms: _143  and  _145
REMARK   61  A    between atoms: _145  and  _146
REMARK   62  A    between atoms: _148  and  _150
REMARK   63  A    between atoms: _150  and  _151
REMARK   64  A    between atoms: _150  and  _153
REMARK   65  A    between atoms: _153  and  _154
REMARK   66  A    between atoms: _154  and  _155
REMARK   67  A    between atoms: _155  and  _156
REMARK   68  A    between atoms: _165  and  _167
REMARK   69  A    between atoms: _167  and  _168
REMARK   70  A    between atoms: _167  and  _170
REMARK   71  A    between atoms: _170  and  _171
REMARK   72  A    between atoms: _176  and  _178
REMARK   73  A    between atoms: _178  and  _179
REMARK   74  A    between atoms: _178  and  _181
REMARK   75  A    between atoms: _181  and  _182
REMARK   76  A    between atoms: _182  and  _183
REMARK   77  A    between atoms: _186  and  _188
REMARK   78  A    between atoms: _188  and  _189
REMARK   79  A    between atoms: _188  and  _191
REMARK   80  A    between atoms: _191  and  _192
REMARK   81  A    between atoms: _192  and  _193
REMARK   82  A    between atoms: _193  and  _194
REMARK   83  A    between atoms: _194  and  _195
REMARK   84  A    between atoms: _199  and  _201
REMARK   85  A    between atoms: _201  and  _202
REMARK   86  A    between atoms: _204  and  _206
REMARK   87  A    between atoms: _206  and  _207
REMARK   88  A    between atoms: _206  and  _209
REMARK   89  A    between atoms: _209  and  _210
REMARK   90  A    between atoms: _210  and  _211
REMARK   91  A    between atoms: _211  and  _212
REMARK   92  A    between atoms: _221  and  _223
REMARK   93  A    between atoms: _223  and  _224
REMARK   94  A    between atoms: _223  and  _226
REMARK   95  A    between atoms: _226  and  _227
REMARK   96  A    between atoms: _227  and  _228
REMARK   97  A    between atoms: _233  and  _235
REMARK   98  A    between atoms: _235  and  _236
REMARK   99  A    between atoms: _235  and  _238
REMARK  100  A    between atoms: _238  and  _239
REMARK  101  A    between atoms: _242  and  _244
REMARK  102  A    between atoms: _244  and  _245
REMARK  103  A    between atoms: _244  and  _247
REMARK  104  A    between atoms: _250  and  _252
REMARK  105  A    between atoms: _252  and  _253
REMARK  106  A    between atoms: _252  and  _255
REMARK  107  A    between atoms: _255  and  _256
REMARK  108  A    between atoms: _258  and  _260
REMARK  109  A    between atoms: _260  and  _261
REMARK  110  A    between atoms: _260  and  _263
REMARK  111  A    between atoms: _263  and  _264
REMARK  112  A    between atoms: _266  and  _268
REMARK  113  A    between atoms: _268  and  _269
REMARK  114  A    between atoms: _268  and  _271
REMARK  115  A    between atoms: _271  and  _272
REMARK  116  A    between atoms: _278  and  _280
REMARK  117  A    between atoms: _280  and  _281
REMARK  118  A    between atoms: _280  and  _283
REMARK  119  A    between atoms: _283  and  _284
REMARK  120  A    between atoms: _287  and  _289
REMARK  121  A    between atoms: _289  and  _290
REMARK  122  A    between atoms: _289  and  _292
REMARK  123  A    between atoms: _292  and  _293
REMARK  124  A    between atoms: _296  and  _298
REMARK  125  A    between atoms: _298  and  _299
REMARK  126  A    between atoms: _298  and  _301
REMARK  127  A    between atoms: _301  and  _302
REMARK  128  A    between atoms: _305  and  _307
REMARK  129  A    between atoms: _307  and  _308
REMARK  130  A    between atoms: _307  and  _310
REMARK  131  A    between atoms: _310  and  _311
REMARK  132  A    between atoms: _311  and  _312
REMARK  133  A    between atoms: _314  and  _316
REMARK  134  A    between atoms: _316  and  _317
REMARK  135  A    between atoms: _316  and  _319
REMARK  136  A    between atoms: _321  and  _323
REMARK  137  A    between atoms: _323  and  _324
REMARK  138  A    between atoms: _327  and  _329
REMARK  139  A    between atoms: _329  and  _330
REMARK  140  A    between atoms: _332  and  _334
REMARK  141  A    between atoms: _334  and  _335
REMARK  142  A    between atoms: _334  and  _337
REMARK  143  A    between atoms: _337  and  _338
REMARK  144  A    between atoms: _343  and  _344
REMARK  145  A    between atoms: _346  and  _348
REMARK  146  A    between atoms: _348  and  _349
REMARK  147  A    between atoms: _348  and  _351
REMARK  148  A    between atoms: _351  and  _352
REMARK  149  A    between atoms: _352  and  _353
REMARK  150  A    between atoms: _356  and  _358
REMARK  151  A    between atoms: _358  and  _359
REMARK  152  A    between atoms: _358  and  _361
REMARK  153  A    between atoms: _361  and  _362
REMARK  154  A    between atoms: _365  and  _367
REMARK  155  A    between atoms: _367  and  _368
REMARK  156  A    between atoms: _371  and  _373
REMARK  157  A    between atoms: _373  and  _374
REMARK  158  A    between atoms: _373  and  _376
REMARK  159  A    between atoms: _376  and  _377
REMARK  160  A    between atoms: _377  and  _500
REMARK  161  A    between atoms: _378  and  _380
REMARK  162  A    between atoms: _380  and  _381
REMARK  163  A    between atoms: _380  and  _383
REMARK  164  A    between atoms: _383  and  _384
REMARK  165  A    between atoms: _384  and  _385
REMARK  166  A    between atoms: _390  and  _392
REMARK  167  A    between atoms: _392  and  _393
REMARK  168  A    between atoms: _395  and  _397
REMARK  169  A    between atoms: _397  and  _398
REMARK  170  A    between atoms: _397  and  _400
REMARK  171  A    between atoms: _400  and  _401
REMARK  172  A    between atoms: _404  and  _406
REMARK  173  A    between atoms: _406  and  _407
REMARK  174  A    between atoms: _406  and  _409
REMARK  175  A    between atoms: _409  and  _410
REMARK  176  A    between atoms: _412  and  _414
REMARK  177  A    between atoms: _414  and  _415
REMARK  178  A    between atoms: _417  and  _419
REMARK  179  A    between atoms: _419  and  _420
REMARK  180  A    between atoms: _422  and  _424
REMARK  181  A    between atoms: _424  and  _425
REMARK  182  A    between atoms: _424  and  _427
REMARK  183  A    between atoms: _427  and  _428
REMARK  184  A    between atoms: _433  and  _435
REMARK  185  A    between atoms: _435  and  _436
REMARK  186  A    between atoms: _435  and  _438
REMARK  187  A    between atoms: _438  and  _439
REMARK  188  A    between atoms: _442  and  _444
REMARK  189  A    between atoms: _444  and  _445
REMARK  190  A    between atoms: _444  and  _447
REMARK  191  A    between atoms: _450  and  _452
REMARK  192  A    between atoms: _452  and  _453
REMARK  193  A    between atoms: _452  and  _455
REMARK  194  A    between atoms: _455  and  _456
REMARK  195  A    between atoms: _458  and  _460
REMARK  196  A    between atoms: _460  and  _461
REMARK  197  A    between atoms: _460  and  _463
REMARK  198  A    between atoms: _463  and  _464
REMARK  199  A    between atoms: _474  and  _476
REMARK  200  A    between atoms: _476  and  _477
REMARK  201  A    between atoms: _479  and  _481
REMARK  202  A    between atoms: _481  and  _482
REMARK  203  A    between atoms: _481  and  _484
REMARK  204  A    between atoms: _484  and  _485
REMARK  205  A    between atoms: _485  and  _486
REMARK  206  A    between atoms: _489  and  _491
REMARK  207  A    between atoms: _491  and  _492
REMARK  208  A    between atoms: _494  and  _496
REMARK  209  A    between atoms: _496  and  _497
REMARK  210  A    between atoms: _496  and  _499
REMARK  211  A    between atoms: _499  and  _500
REMARK  212  A    between atoms: _501  and  _503
REMARK  213  A    between atoms: _503  and  _504
REMARK  214  A    between atoms: _507  and  _509
REMARK  215  A    between atoms: _509  and  _510
REMARK  216  A    between atoms: _509  and  _512
REMARK  217  A    between atoms: _512  and  _513
REMARK  218  A    between atoms: _513  and  _514
REMARK  219  A    between atoms: _514  and  _515
REMARK  220  A    between atoms: _524  and  _526
REMARK  221  A    between atoms: _526  and  _527
REMARK  222  A    between atoms: _526  and  _529
REMARK  223  A    between atoms: _529  and  _530
REMARK  224  A    between atoms: _530  and  _531
REMARK  225  A    between atoms: _531  and  _532
REMARK  226  A    between atoms: _532  and  _533
REMARK  227  A    between atoms: _537  and  _539
REMARK  228  A    between atoms: _539  and  _540
REMARK  229  A    between atoms: _539  and  _542
REMARK  230  A    between atoms: _542  and  _543
REMARK  231  A    between atoms: _548  and  _549
REMARK  232  A    between atoms: _551  and  _553
REMARK  233  A    between atoms: _553  and  _554
REMARK  234  A    between atoms: _556  and  _558
REMARK  235  A    between atoms: _558  and  _559
REMARK  236  A    between atoms: _558  and  _561
REMARK  237  A    between atoms: _561  and  _562
REMARK  238  A    between atoms: _565  and  _567
REMARK  239  A    between atoms: _567  and  _568
REMARK  240  A    between atoms: _567  and  _570
REMARK  241  A    between atoms: _570  and  _571
REMARK  242  A    between atoms: _576  and  _577
REMARK                            x       y       z     vdW  Elec       q    Type
REMARK                         _______ _______ _______ _____ _____    ______ ____
ROOT
ATOM      1  O   HOH     1      16.278  32.013  59.941  0.00  0.00    +0.000 OA
ENDROOT
TORSDOF 0
REMARK  Name = ../refined-set-2016/1z6e/1z6e_pocket.pdb
REMARK  242 active torsions:
REMARK  status: ('A' for Active; 'I' for Inactive)
REMARK    1  A    between atoms: _1  and  _5
REMARK    2  A    between atoms: _5  and  _6
REMARK    3  A    between atoms: _5  and  _8
REMARK    4  A    between atoms: _8  and  _9
REMARK    5  A    between atoms: _12  and  _14
REMARK    6  A    between atoms: _14  and  _15
REMARK    7  A    between atoms: _14  and  _17
REMARK    8  A    between atoms: _20  and  _22
REMARK    9  A    between atoms: _22  and  _23
REMARK   10  A    between atoms: _22  and  _25
REMARK   11  A    between atoms: _25  and  _26
REMARK   12  A    between atoms: _31  and  _33
REMARK   13  A    between atoms: _33  and  _34
REMARK   14  A    between atoms: _33  and  _36
REMARK   15  A    between atoms: _38  and  _40
REMARK   16  A    between atoms: _40  and  _41
REMARK   17  A    between atoms: _40  and  _43
REMARK   18  A    between atoms: _43  and  _44
REMARK   19  A    between atoms: _44  and  _45
REMARK   20  A    between atoms: _50  and  _52
REMARK   21  A    between atoms: _52  and  _53
REMARK   22  A    between atoms: _52  and  _55
REMARK   23  A    between atoms: _55  and  _56
REMARK   24  A    between atoms: _62  and  _64
REMARK   25  A    between atoms: _64  and  _65
REMARK   26  A    between atoms: _64  and  _67
REMARK   27  A    between atoms: _67  and  _68
REMARK   28  A    between atoms: _71  and  _73
REMARK   29  A    between atoms: _73  and  _74
REMARK   30  A    between atoms: _73  and  _76
REMARK   31  A    between atoms: _76  and  _77
REMARK   32  A    between atoms: _77  and  _78
REMARK   33  A    between atoms: _78  and  _79
REMARK   34  A    between atoms: _79  and  _80
REMARK   35  A    between atoms: _84  and  _86
REMARK   36  A    between atoms: _86  and  _87
REMARK   37  A    between atoms: _86  and  _89
REMARK   38  A    between atoms: _89  and  _90
REMARK   39  A    between atoms: _90  and  _91
REMARK   40  A    between atoms: _94  and  _96
REMARK   41  A    between atoms: _96  and  _97
REMARK   42  A    between atoms: _96  and  _99
REMARK   43  A    between atoms: _99  and  _100
REMARK   44  A    between atoms: _103  and  _105
REMARK   45  A    between atoms: _105  and  _106
REMARK   46  A    between atoms: _105  and  _108
REMARK   47  A    between atoms: _108  and  _109
REMARK   48  A    between atoms: _114  and  _115
REMARK   49  A    between atoms: _117  and  _119
REMARK   50  A    between atoms: _119  and  _120
REMARK   51  A    between atoms: _119  and  _122
REMARK   52  A    between atoms: _122  and  _123
REMARK   53  A    between atoms: _126  and  _128
REMARK   54  A    between atoms: _128  and  _129
REMARK   55  A    between atoms: _128  and  _131
REMARK   56  A    between atoms: _131  and  _132
REMARK   57  A    between atoms: _135  and  _137
REMARK   58  A    between atoms: _137  and  _138
REMARK   59  A    between atoms: _137  and  _140
REMARK   60  A    between atoms: _143  and  _145
REMARK   61  A    between atoms: _145  and  _146
REMARK   62  A    between atoms: _148  and  _150
REMARK   63  A    between atoms: _150  and  _151
REMARK   64  A    between atoms: _150  and  _153
REMARK   65  A    between atoms: _153  and  _154
REMARK   66  A    between atoms: _154  and  _155
REMARK   67  A    between atoms: _155  and  _156
REMARK   68  A    between atoms: _165  and  _167
REMARK   69  A    between atoms: _167  and  _168
REMARK   70  A    between atoms: _167  and  _170
REMARK   71  A    between atoms: _170  and  _171
REMARK   72  A    between atoms: _176  and  _178
REMARK   73  A    between atoms: _178  and  _179
REMARK   74  A    between atoms: _178  and  _181
REMARK   75  A    between atoms: _181  and  _182
REMARK   76  A    between atoms: _182  and  _183
REMARK   77  A    between atoms: _186  and  _188
REMARK   78  A    between atoms: _188  and  _189
REMARK   79  A    between atoms: _188  and  _191
REMARK   80  A    between atoms: _191  and  _192
REMARK   81  A    between atoms: _192  and  _193
REMARK   82  A    between atoms: _193  and  _194
REMARK   83  A    between atoms: _194  and  _195
REMARK   84  A    between atoms: _199  and  _201
REMARK   85  A    between atoms: _201  and  _202
REMARK   86  A    between atoms: _204  and  _206
REMARK   87  A    between atoms: _206  and  _207
REMARK   88  A    between atoms: _206  and  _209
REMARK   89  A    between atoms: _209  and  _210
REMARK   90  A    between atoms: _210  and  _211
REMARK   91  A    between atoms: _211  and  _212
REMARK   92  A    between atoms: _221  and  _223
REMARK   93  A    between atoms: _223  and  _224
REMARK   94  A    between atoms: _223  and  _226
REMARK   95  A    between atoms: _226  and  _227
REMARK   96  A    between atoms: _227  and  _228
REMARK   97  A    between atoms: _233  and  _235
REMARK   98  A    between atoms: _235  and  _236
REMARK   99  A    between atoms: _235  and  _238
REMARK  100  A    between atoms: _238  and  _239
REMARK  101  A    between atoms: _242  and  _244
REMARK  102  A    between atoms: _244  and  _245
REMARK  103  A    between atoms: _244  and  _247
REMARK  104  A    between atoms: _250  and  _252
REMARK  105  A    between atoms: _252  and  _253
REMARK  106  A    between atoms: _252  and  _255
REMARK  107  A    between atoms: _255  and  _256
REMARK  108  A    between atoms: _258  and  _260
REMARK  109  A    between atoms: _260  and  _261
REMARK  110  A    between atoms: _260  and  _263
REMARK  111  A    between atoms: _263  and  _264
REMARK  112  A    between atoms: _266  and  _268
REMARK  113  A    between atoms: _268  and  _269
REMARK  114  A    between atoms: _268  and  _271
REMARK  115  A    between atoms: _271  and  _272
REMARK  116  A    between atoms: _278  and  _280
REMARK  117  A    between atoms: _280  and  _281
REMARK  118  A    between atoms: _280  and  _283
REMARK  119  A    between atoms: _283  and  _284
REMARK  120  A    between atoms: _287  and  _289
REMARK  121  A    between atoms: _289  and  _290
REMARK  122  A    between atoms: _289  and  _292
REMARK  123  A    between atoms: _292  and  _293
REMARK  124  A    between atoms: _296  and  _298
REMARK  125  A    between atoms: _298  and  _299
REMARK  126  A    between atoms: _298  and  _301
REMARK  127  A    between atoms: _301  and  _302
REMARK  128  A    between atoms: _305  and  _307
REMARK  129  A    between atoms: _307  and  _308
REMARK  130  A    between atoms: _307  and  _310
REMARK  131  A    between atoms: _310  and  _311
REMARK  132  A    between atoms: _311  and  _312
REMARK  133  A    between atoms: _314  and  _316
REMARK  134  A    between atoms: _316  and  _317
REMARK  135  A    between atoms: _316  and  _319
REMARK  136  A    between atoms: _321  and  _323
REMARK  137  A    between atoms: _323  and  _324
REMARK  138  A    between atoms: _327  and  _329
REMARK  139  A    between atoms: _329  and  _330
REMARK  140  A    between atoms: _332  and  _334
REMARK  141  A    between atoms: _334  and  _335
REMARK  142  A    between atoms: _334  and  _337
REMARK  143  A    between atoms: _337  and  _338
REMARK  144  A    between atoms: _343  and  _344
REMARK  145  A    between atoms: _346  and  _348
REMARK  146  A    between atoms: _348  and  _349
REMARK  147  A    between atoms: _348  and  _351
REMARK  148  A    between atoms: _351  and  _352
REMARK  149  A    between atoms: _352  and  _353
REMARK  150  A    between atoms: _356  and  _358
REMARK  151  A    between atoms: _358  and  _359
REMARK  152  A    between atoms: _358  and  _361
REMARK  153  A    between atoms: _361  and  _362
REMARK  154  A    between atoms: _365  and  _367
REMARK  155  A    between atoms: _367  and  _368
REMARK  156  A    between atoms: _371  and  _373
REMARK  157  A    between atoms: _373  and  _374
REMARK  158  A    between atoms: _373  and  _376
REMARK  159  A    between atoms: _376  and  _377
REMARK  160  A    between atoms: _377  and  _500
REMARK  161  A    between atoms: _378  and  _380
REMARK  162  A    between atoms: _380  and  _381
REMARK  163  A    between atoms: _380  and  _383
REMARK  164  A    between atoms: _383  and  _384
REMARK  165  A    between atoms: _384  and  _385
REMARK  166  A    between atoms: _390  and  _392
REMARK  167  A    between atoms: _392  and  _393
REMARK  168  A    between atoms: _395  and  _397
REMARK  169  A    between atoms: _397  and  _398
REMARK  170  A    between atoms: _397  and  _400
REMARK  171  A    between atoms: _400  and  _401
REMARK  172  A    between atoms: _404  and  _406
REMARK  173  A    between atoms: _406  and  _407
REMARK  174  A    between atoms: _406  and  _409
REMARK  175  A    between atoms: _409  and  _410
REMARK  176  A    between atoms: _412  and  _414
REMARK  177  A    between atoms: _414  and  _415
REMARK  178  A    between atoms: _417  and  _419
REMARK  179  A    between atoms: _419  and  _420
REMARK  180  A    between atoms: _422  and  _424
REMARK  181  A    between atoms: _424  and  _425
REMARK  182  A    between atoms: _424  and  _427
REMARK  183  A    between atoms: _427  and  _428
REMARK  184  A    between atoms: _433  and  _435
REMARK  185  A    between atoms: _435  and  _436
REMARK  186  A    between atoms: _435  and  _438
REMARK  187  A    between atoms: _438  and  _439
REMARK  188  A    between atoms: _442  and  _444
REMARK  189  A    between atoms: _444  and  _445
REMARK  190  A    between atoms: _444  and  _447
REMARK  191  A    between atoms: _450  and  _452
REMARK  192  A    between atoms: _452  and  _453
REMARK  193  A    between atoms: _452  and  _455
REMARK  194  A    between atoms: _455  and  _456
REMARK  195  A    between atoms: _458  and  _460
REMARK  196  A    between atoms: _460  and  _461
REMARK  197  A    between atoms: _460  and  _463
REMARK  198  A    between atoms: _463  and  _464
REMARK  199  A    between atoms: _474  and  _476
REMARK  200  A    between atoms: _476  and  _477
REMARK  201  A    between atoms: _479  and  _481
REMARK  202  A    between atoms: _481  and  _482
REMARK  203  A    between atoms: _481  and  _484
REMARK  204  A    between atoms: _484  and  _485
REMARK  205  A    between atoms: _485  and  _486
REMARK  206  A    between atoms: _489  and  _491
REMARK  207  A    between atoms: _491  and  _492
REMARK  208  A    between atoms: _494  and  _496
REMARK  209  A    between atoms: _496  and  _497
REMARK  210  A    between atoms: _496  and  _499
REMARK  211  A    between atoms: _499  and  _500
REMARK  212  A    between atoms: _501  and  _503
REMARK  213  A    between atoms: _503  and  _504
REMARK  214  A    between atoms: _507  and  _509
REMARK  215  A    between atoms: _509  and  _510
REMARK  216  A    between atoms: _509  and  _512
REMARK  217  A    between atoms: _512  and  _513
REMARK  218  A    between atoms: _513  and  _514
REMARK  219  A    between atoms: _514  and  _515
REMARK  220  A    between atoms: _524  and  _526
REMARK  221  A    between atoms: _526  and  _527
REMARK  222  A    between atoms: _526  and  _529
REMARK  223  A    between atoms: _529  and  _530
REMARK  224  A    between atoms: _530  and  _531
REMARK  225  A    between atoms: _531  and  _532
REMARK  226  A    between atoms: _532  and  _533
REMARK  227  A    between atoms: _537  and  _539
REMARK  228  A    between atoms: _539  and  _540
REMARK  229  A    between atoms: _539  and  _542
REMARK  230  A    between atoms: _542  and  _543
REMARK  231  A    between atoms: _548  and  _549
REMARK  232  A    between atoms: _551  and  _553
REMARK  233  A    between atoms: _553  and  _554
REMARK  234  A    between atoms: _556  and  _558
REMARK  235  A    between atoms: _558  and  _559
REMARK  236  A    between atoms: _558  and  _561
REMARK  237  A    between atoms: _561  and  _562
REMARK  238  A    between atoms: _565  and  _567
REMARK  239  A    between atoms: _567  and  _568
REMARK  240  A    between atoms: _567  and  _570
REMARK  241  A    between atoms: _570  and  _571
REMARK  242  A    between atoms: _576  and  _577
REMARK                            x       y       z     vdW  Elec       q    Type
REMARK                         _______ _______ _______ _____ _____    ______ ____
ROOT
ATOM      1  O   HOH     1       9.666  35.159  52.013  0.00  0.00    +0.000 OA
ENDROOT
TORSDOF 0
REMARK  Name = ../refined-set-2016/1z6e/1z6e_pocket.pdb
REMARK  242 active torsions:
REMARK  status: ('A' for Active; 'I' for Inactive)
REMARK    1  A    between atoms: _1  and  _5
REMARK    2  A    between atoms: _5  and  _6
REMARK    3  A    between atoms: _5  and  _8
REMARK    4  A    between atoms: _8  and  _9
REMARK    5  A    between atoms: _12  and  _14
REMARK    6  A    between atoms: _14  and  _15
REMARK    7  A    between atoms: _14  and  _17
REMARK    8  A    between atoms: _20  and  _22
REMARK    9  A    between atoms: _22  and  _23
REMARK   10  A    between atoms: _22  and  _25
REMARK   11  A    between atoms: _25  and  _26
REMARK   12  A    between atoms: _31  and  _33
REMARK   13  A    between atoms: _33  and  _34
REMARK   14  A    between atoms: _33  and  _36
REMARK   15  A    between atoms: _38  and  _40
REMARK   16  A    between atoms: _40  and  _41
REMARK   17  A    between atoms: _40  and  _43
REMARK   18  A    between atoms: _43  and  _44
REMARK   19  A    between atoms: _44  and  _45
REMARK   20  A    between atoms: _50  and  _52
REMARK   21  A    between atoms: _52  and  _53
REMARK   22  A    between atoms: _52  and  _55
REMARK   23  A    between atoms: _55  and  _56
REMARK   24  A    between atoms: _62  and  _64
REMARK   25  A    between atoms: _64  and  _65
REMARK   26  A    between atoms: _64  and  _67
REMARK   27  A    between atoms: _67  and  _68
REMARK   28  A    between atoms: _71  and  _73
REMARK   29  A    between atoms: _73  and  _74
REMARK   30  A    between atoms: _73  and  _76
REMARK   31  A    between atoms: _76  and  _77
REMARK   32  A    between atoms: _77  and  _78
REMARK   33  A    between atoms: _78  and  _79
REMARK   34  A    between atoms: _79  and  _80
REMARK   35  A    between atoms: _84  and  _86
REMARK   36  A    between atoms: _86  and  _87
REMARK   37  A    between atoms: _86  and  _89
REMARK   38  A    between atoms: _89  and  _90
REMARK   39  A    between atoms: _90  and  _91
REMARK   40  A    between atoms: _94  and  _96
REMARK   41  A    between atoms: _96  and  _97
REMARK   42  A    between atoms: _96  and  _99
REMARK   43  A    between atoms: _99  and  _100
REMARK   44  A    between atoms: _103  and  _105
REMARK   45  A    between atoms: _105  and  _106
REMARK   46  A    between atoms: _105  and  _108
REMARK   47  A    between atoms: _108  and  _109
REMARK   48  A    between atoms: _114  and  _115
REMARK   49  A    between atoms: _117  and  _119
REMARK   50  A    between atoms: _119  and  _120
REMARK   51  A    between atoms: _119  and  _122
REMARK   52  A    between atoms: _122  and  _123
REMARK   53  A    between atoms: _126  and  _128
REMARK   54  A    between atoms: _128  and  _129
REMARK   55  A    between atoms: _128  and  _131
REMARK   56  A    between atoms: _131  and  _132
REMARK   57  A    between atoms: _135  and  _137
REMARK   58  A    between atoms: _137  and  _138
REMARK   59  A    between atoms: _137  and  _140
REMARK   60  A    between atoms: _143  and  _145
REMARK   61  A    between atoms: _145  and  _146
REMARK   62  A    between atoms: _148  and  _150
REMARK   63  A    between atoms: _150  and  _151
REMARK   64  A    between atoms: _150  and  _153
REMARK   65  A    between atoms: _153  and  _154
REMARK   66  A    between atoms: _154  and  _155
REMARK   67  A    between atoms: _155  and  _156
REMARK   68  A    between atoms: _165  and  _167
REMARK   69  A    between atoms: _167  and  _168
REMARK   70  A    between atoms: _167  and  _170
REMARK   71  A    between atoms: _170  and  _171
REMARK   72  A    between atoms: _176  and  _178
REMARK   73  A    between atoms: _178  and  _179
REMARK   74  A    between atoms: _178  and  _181
REMARK   75  A    between atoms: _181  and  _182
REMARK   76  A    between atoms: _182  and  _183
REMARK   77  A    between atoms: _186  and  _188
REMARK   78  A    between atoms: _188  and  _189
REMARK   79  A    between atoms: _188  and  _191
REMARK   80  A    between atoms: _191  and  _192
REMARK   81  A    between atoms: _192  and  _193
REMARK   82  A    between atoms: _193  and  _194
REMARK   83  A    between atoms: _194  and  _195
REMARK   84  A    between atoms: _199  and  _201
REMARK   85  A    between atoms: _201  and  _202
REMARK   86  A    between atoms: _204  and  _206
REMARK   87  A    between atoms: _206  and  _207
REMARK   88  A    between atoms: _206  and  _209
REMARK   89  A    between atoms: _209  and  _210
REMARK   90  A    between atoms: _210  and  _211
REMARK   91  A    between atoms: _211  and  _212
REMARK   92  A    between atoms: _221  and  _223
REMARK   93  A    between atoms: _223  and  _224
REMARK   94  A    between atoms: _223  and  _226
REMARK   95  A    between atoms: _226  and  _227
REMARK   96  A    between atoms: _227  and  _228
REMARK   97  A    between atoms: _233  and  _235
REMARK   98  A    between atoms: _235  and  _236
REMARK   99  A    between atoms: _235  and  _238
REMARK  100  A    between atoms: _238  and  _239
REMARK  101  A    between atoms: _242  and  _244
REMARK  102  A    between atoms: _244  and  _245
REMARK  103  A    between atoms: _244  and  _247
REMARK  104  A    between atoms: _250  and  _252
REMARK  105  A    between atoms: _252  and  _253
REMARK  106  A    between atoms: _252  and  _255
REMARK  107  A    between atoms: _255  and  _256
REMARK  108  A    between atoms: _258  and  _260
REMARK  109  A    between atoms: _260  and  _261
REMARK  110  A    between atoms: _260  and  _263
REMARK  111  A    between atoms: _263  and  _264
REMARK  112  A    between atoms: _266  and  _268
REMARK  113  A    between atoms: _268  and  _269
REMARK  114  A    between atoms: _268  and  _271
REMARK  115  A    between atoms: _271  and  _272
REMARK  116  A    between atoms: _278  and  _280
REMARK  117  A    between atoms: _280  and  _281
REMARK  118  A    between atoms: _280  and  _283
REMARK  119  A    between atoms: _283  and  _284
REMARK  120  A    between atoms: _287  and  _289
REMARK  121  A    between atoms: _289  and  _290
REMARK  122  A    between atoms: _289  and  _292
REMARK  123  A    between atoms: _292  and  _293
REMARK  124  A    between atoms: _296  and  _298
REMARK  125  A    between atoms: _298  and  _299
REMARK  126  A    between atoms: _298  and  _301
REMARK  127  A    between atoms: _301  and  _302
REMARK  128  A    between atoms: _305  and  _307
REMARK  129  A    between atoms: _307  and  _308
REMARK  130  A    between atoms: _307  and  _310
REMARK  131  A    between atoms: _310  and  _311
REMARK  132  A    between atoms: _311  and  _312
REMARK  133  A    between atoms: _314  and  _316
REMARK  134  A    between atoms: _316  and  _317
REMARK  135  A    between atoms: _316  and  _319
REMARK  136  A    between atoms: _321  and  _323
REMARK  137  A    between atoms: _323  and  _324
REMARK  138  A    between atoms: _327  and  _329
REMARK  139  A    between atoms: _329  and  _330
REMARK  140  A    between atoms: _332  and  _334
REMARK  141  A    between atoms: _334  and  _335
REMARK  142  A    between atoms: _334  and  _337
REMARK  143  A    between atoms: _337  and  _338
REMARK  144  A    between atoms: _343  and  _344
REMARK  145  A    between atoms: _346  and  _348
REMARK  146  A    between atoms: _348  and  _349
REMARK  147  A    between atoms: _348  and  _351
REMARK  148  A    between atoms: _351  and  _352
REMARK  149  A    between atoms: _352  and  _353
REMARK  150  A    between atoms: _356  and  _358
REMARK  151  A    between atoms: _358  and  _359
REMARK  152  A    between atoms: _358  and  _361
REMARK  153  A    between atoms: _361  and  _362
REMARK  154  A    between atoms: _365  and  _367
REMARK  155  A    between atoms: _367  and  _368
REMARK  156  A    between atoms: _371  and  _373
REMARK  157  A    between atoms: _373  and  _374
REMARK  158  A    between atoms: _373  and  _376
REMARK  159  A    between atoms: _376  and  _377
REMARK  160  A    between atoms: _377  and  _500
REMARK  161  A    between atoms: _378  and  _380
REMARK  162  A    between atoms: _380  and  _381
REMARK  163  A    between atoms: _380  and  _383
REMARK  164  A    between atoms: _383  and  _384
REMARK  165  A    between atoms: _384  and  _385
REMARK  166  A    between atoms: _390  and  _392
REMARK  167  A    between atoms: _392  and  _393
REMARK  168  A    between atoms: _395  and  _397
REMARK  169  A    between atoms: _397  and  _398
REMARK  170  A    between atoms: _397  and  _400
REMARK  171  A    between atoms: _400  and  _401
REMARK  172  A    between atoms: _404  and  _406
REMARK  173  A    between atoms: _406  and  _407
REMARK  174  A    between atoms: _406  and  _409
REMARK  175  A    between atoms: _409  and  _410
REMARK  176  A    between atoms: _412  and  _414
REMARK  177  A    between atoms: _414  and  _415
REMARK  178  A    between atoms: _417  and  _419
REMARK  179  A    between atoms: _419  and  _420
REMARK  180  A    between atoms: _422  and  _424
REMARK  181  A    between atoms: _424  and  _425
REMARK  182  A    between atoms: _424  and  _427
REMARK  183  A    between atoms: _427  and  _428
REMARK  184  A    between atoms: _433  and  _435
REMARK  185  A    between atoms: _435  and  _436
REMARK  186  A    between atoms: _435  and  _438
REMARK  187  A    between atoms: _438  and  _439
REMARK  188  A    between atoms: _442  and  _444
REMARK  189  A    between atoms: _444  and  _445
REMARK  190  A    between atoms: _444  and  _447
REMARK  191  A    between atoms: _450  and  _452
REMARK  192  A    between atoms: _452  and  _453
REMARK  193  A    between atoms: _452  and  _455
REMARK  194  A    between atoms: _455  and  _456
REMARK  195  A    between atoms: _458  and  _460
REMARK  196  A    between atoms: _460  and  _461
REMARK  197  A    between atoms: _460  and  _463
REMARK  198  A    between atoms: _463  and  _464
REMARK  199  A    between atoms: _474  and  _476
REMARK  200  A    between atoms: _476  and  _477
REMARK  201  A    between atoms: _479  and  _481
REMARK  202  A    between atoms: _481  and  _482
REMARK  203  A    between atoms: _481  and  _484
REMARK  204  A    between atoms: _484  and  _485
REMARK  205  A    between atoms: _485  and  _486
REMARK  206  A    between atoms: _489  and  _491
REMARK  207  A    between atoms: _491  and  _492
REMARK  208  A    between atoms: _494  and  _496
REMARK  209  A    between atoms: _496  and  _497
REMARK  210  A    between atoms: _496  and  _499
REMARK  211  A    between atoms: _499  and  _500
REMARK  212  A    between atoms: _501  and  _503
REMARK  213  A    between atoms: _503  and  _504
REMARK  214  A    between atoms: _507  and  _509
REMARK  215  A    between atoms: _509  and  _510
REMARK  216  A    between atoms: _509  and  _512
REMARK  217  A    between atoms: _512  and  _513
REMARK  218  A    between atoms: _513  and  _514
REMARK  219  A    between atoms: _514  and  _515
REMARK  220  A    between atoms: _524  and  _526
REMARK  221  A    between atoms: _526  and  _527
REMARK  222  A    between atoms: _526  and  _529
REMARK  223  A    between atoms: _529  and  _530
REMARK  224  A    between atoms: _530  and  _531
REMARK  225  A    between atoms: _531  and  _532
REMARK  226  A    between atoms: _532  and  _533
REMARK  227  A    between atoms: _537  and  _539
REMARK  228  A    between atoms: _539  and  _540
REMARK  229  A    between atoms: _539  and  _542
REMARK  230  A    between atoms: _542  and  _543
REMARK  231  A    between atoms: _548  and  _549
REMARK  232  A    between atoms: _551  and  _553
REMARK  233  A    between atoms: _553  and  _554
REMARK  234  A    between atoms: _556  and  _558
REMARK  235  A    between atoms: _558  and  _559
REMARK  236  A    between atoms: _558  and  _561
REMARK  237  A    between atoms: _561  and  _562
REMARK  238  A    between atoms: _565  and  _567
REMARK  239  A    between atoms: _567  and  _568
REMARK  240  A    between atoms: _567  and  _570
REMARK  241  A    between atoms: _570  and  _571
REMARK  242  A    between atoms: _576  and  _577
REMARK                            x       y       z     vdW  Elec       q    Type
REMARK                         _______ _______ _______ _____ _____    ______ ____
ROOT
ATOM      1  O   HOH     1      11.247  37.610  50.756  0.00  0.00    +0.000 OA
ENDROOT
TORSDOF 0
REMARK  Name = ../refined-set-2016/1z6e/1z6e_pocket.pdb
REMARK  242 active torsions:
REMARK  status: ('A' for Active; 'I' for Inactive)
REMARK    1  A    between atoms: _1  and  _5
REMARK    2  A    between atoms: _5  and  _6
REMARK    3  A    between atoms: _5  and  _8
REMARK    4  A    between atoms: _8  and  _9
REMARK    5  A    between atoms: _12  and  _14
REMARK    6  A    between atoms: _14  and  _15
REMARK    7  A    between atoms: _14  and  _17
REMARK    8  A    between atoms: _20  and  _22
REMARK    9  A    between atoms: _22  and  _23
REMARK   10  A    between atoms: _22  and  _25
REMARK   11  A    between atoms: _25  and  _26
REMARK   12  A    between atoms: _31  and  _33
REMARK   13  A    between atoms: _33  and  _34
REMARK   14  A    between atoms: _33  and  _36
REMARK   15  A    between atoms: _38  and  _40
REMARK   16  A    between atoms: _40  and  _41
REMARK   17  A    between atoms: _40  and  _43
REMARK   18  A    between atoms: _43  and  _44
REMARK   19  A    between atoms: _44  and  _45
REMARK   20  A    between atoms: _50  and  _52
REMARK   21  A    between atoms: _52  and  _53
REMARK   22  A    between atoms: _52  and  _55
REMARK   23  A    between atoms: _55  and  _56
REMARK   24  A    between atoms: _62  and  _64
REMARK   25  A    between atoms: _64  and  _65
REMARK   26  A    between atoms: _64  and  _67
REMARK   27  A    between atoms: _67  and  _68
REMARK   28  A    between atoms: _71  and  _73
REMARK   29  A    between atoms: _73  and  _74
REMARK   30  A    between atoms: _73  and  _76
REMARK   31  A    between atoms: _76  and  _77
REMARK   32  A    between atoms: _77  and  _78
REMARK   33  A    between atoms: _78  and  _79
REMARK   34  A    between atoms: _79  and  _80
REMARK   35  A    between atoms: _84  and  _86
REMARK   36  A    between atoms: _86  and  _87
REMARK   37  A    between atoms: _86  and  _89
REMARK   38  A    between atoms: _89  and  _90
REMARK   39  A    between atoms: _90  and  _91
REMARK   40  A    between atoms: _94  and  _96
REMARK   41  A    between atoms: _96  and  _97
REMARK   42  A    between atoms: _96  and  _99
REMARK   43  A    between atoms: _99  and  _100
REMARK   44  A    between atoms: _103  and  _105
REMARK   45  A    between atoms: _105  and  _106
REMARK   46  A    between atoms: _105  and  _108
REMARK   47  A    between atoms: _108  and  _109
REMARK   48  A    between atoms: _114  and  _115
REMARK   49  A    between atoms: _117  and  _119
REMARK   50  A    between atoms: _119  and  _120
REMARK   51  A    between atoms: _119  and  _122
REMARK   52  A    between atoms: _122  and  _123
REMARK   53  A    between atoms: _126  and  _128
REMARK   54  A    between atoms: _128  and  _129
REMARK   55  A    between atoms: _128  and  _131
REMARK   56  A    between atoms: _131  and  _132
REMARK   57  A    between atoms: _135  and  _137
REMARK   58  A    between atoms: _137  and  _138
REMARK   59  A    between atoms: _137  and  _140
REMARK   60  A    between atoms: _143  and  _145
REMARK   61  A    between atoms: _145  and  _146
REMARK   62  A    between atoms: _148  and  _150
REMARK   63  A    between atoms: _150  and  _151
REMARK   64  A    between atoms: _150  and  _153
REMARK   65  A    between atoms: _153  and  _154
REMARK   66  A    between atoms: _154  and  _155
REMARK   67  A    between atoms: _155  and  _156
REMARK   68  A    between atoms: _165  and  _167
REMARK   69  A    between atoms: _167  and  _168
REMARK   70  A    between atoms: _167  and  _170
REMARK   71  A    between atoms: _170  and  _171
REMARK   72  A    between atoms: _176  and  _178
REMARK   73  A    between atoms: _178  and  _179
REMARK   74  A    between atoms: _178  and  _181
REMARK   75  A    between atoms: _181  and  _182
REMARK   76  A    between atoms: _182  and  _183
REMARK   77  A    between atoms: _186  and  _188
REMARK   78  A    between atoms: _188  and  _189
REMARK   79  A    between atoms: _188  and  _191
REMARK   80  A    between atoms: _191  and  _192
REMARK   81  A    between atoms: _192  and  _193
REMARK   82  A    between atoms: _193  and  _194
REMARK   83  A    between atoms: _194  and  _195
REMARK   84  A    between atoms: _199  and  _201
REMARK   85  A    between atoms: _201  and  _202
REMARK   86  A    between atoms: _204  and  _206
REMARK   87  A    between atoms: _206  and  _207
REMARK   88  A    between atoms: _206  and  _209
REMARK   89  A    between atoms: _209  and  _210
REMARK   90  A    between atoms: _210  and  _211
REMARK   91  A    between atoms: _211  and  _212
REMARK   92  A    between atoms: _221  and  _223
REMARK   93  A    between atoms: _223  and  _224
REMARK   94  A    between atoms: _223  and  _226
REMARK   95  A    between atoms: _226  and  _227
REMARK   96  A    between atoms: _227  and  _228
REMARK   97  A    between atoms: _233  and  _235
REMARK   98  A    between atoms: _235  and  _236
REMARK   99  A    between atoms: _235  and  _238
REMARK  100  A    between atoms: _238  and  _239
REMARK  101  A    between atoms: _242  and  _244
REMARK  102  A    between atoms: _244  and  _245
REMARK  103  A    between atoms: _244  and  _247
REMARK  104  A    between atoms: _250  and  _252
REMARK  105  A    between atoms: _252  and  _253
REMARK  106  A    between atoms: _252  and  _255
REMARK  107  A    between atoms: _255  and  _256
REMARK  108  A    between atoms: _258  and  _260
REMARK  109  A    between atoms: _260  and  _261
REMARK  110  A    between atoms: _260  and  _263
REMARK  111  A    between atoms: _263  and  _264
REMARK  112  A    between atoms: _266  and  _268
REMARK  113  A    between atoms: _268  and  _269
REMARK  114  A    between atoms: _268  and  _271
REMARK  115  A    between atoms: _271  and  _272
REMARK  116  A    between atoms: _278  and  _280
REMARK  117  A    between atoms: _280  and  _281
REMARK  118  A    between atoms: _280  and  _283
REMARK  119  A    between atoms: _283  and  _284
REMARK  120  A    between atoms: _287  and  _289
REMARK  121  A    between atoms: _289  and  _290
REMARK  122  A    between atoms: _289  and  _292
REMARK  123  A    between atoms: _292  and  _293
REMARK  124  A    between atoms: _296  and  _298
REMARK  125  A    between atoms: _298  and  _299
REMARK  126  A    between atoms: _298  and  _301
REMARK  127  A    between atoms: _301  and  _302
REMARK  128  A    between atoms: _305  and  _307
REMARK  129  A    between atoms: _307  and  _308
REMARK  130  A    between atoms: _307  and  _310
REMARK  131  A    between atoms: _310  and  _311
REMARK  132  A    between atoms: _311  and  _312
REMARK  133  A    between atoms: _314  and  _316
REMARK  134  A    between atoms: _316  and  _317
REMARK  135  A    between atoms: _316  and  _319
REMARK  136  A    between atoms: _321  and  _323
REMARK  137  A    between atoms: _323  and  _324
REMARK  138  A    between atoms: _327  and  _329
REMARK  139  A    between atoms: _329  and  _330
REMARK  140  A    between atoms: _332  and  _334
REMARK  141  A    between atoms: _334  and  _335
REMARK  142  A    between atoms: _334  and  _337
REMARK  143  A    between atoms: _337  and  _338
REMARK  144  A    between atoms: _343  and  _344
REMARK  145  A    between atoms: _346  and  _348
REMARK  146  A    between atoms: _348  and  _349
REMARK  147  A    between atoms: _348  and  _351
REMARK  148  A    between atoms: _351  and  _352
REMARK  149  A    between atoms: _352  and  _353
REMARK  150  A    between atoms: _356  and  _358
REMARK  151  A    between atoms: _358  and  _359
REMARK  152  A    between atoms: _358  and  _361
REMARK  153  A    between atoms: _361  and  _362
REMARK  154  A    between atoms: _365  and  _367
REMARK  155  A    between atoms: _367  and  _368
REMARK  156  A    between atoms: _371  and  _373
REMARK  157  A    between atoms: _373  and  _374
REMARK  158  A    between atoms: _373  and  _376
REMARK  159  A    between atoms: _376  and  _377
REMARK  160  A    between atoms: _377  and  _500
REMARK  161  A    between atoms: _378  and  _380
REMARK  162  A    between atoms: _380  and  _381
REMARK  163  A    between atoms: _380  and  _383
REMARK  164  A    between atoms: _383  and  _384
REMARK  165  A    between atoms: _384  and  _385
REMARK  166  A    between atoms: _390  and  _392
REMARK  167  A    between atoms: _392  and  _393
REMARK  168  A    between atoms: _395  and  _397
REMARK  169  A    between atoms: _397  and  _398
REMARK  170  A    between atoms: _397  and  _400
REMARK  171  A    between atoms: _400  and  _401
REMARK  172  A    between atoms: _404  and  _406
REMARK  173  A    between atoms: _406  and  _407
REMARK  174  A    between atoms: _406  and  _409
REMARK  175  A    between atoms: _409  and  _410
REMARK  176  A    between atoms: _412  and  _414
REMARK  177  A    between atoms: _414  and  _415
REMARK  178  A    between atoms: _417  and  _419
REMARK  179  A    between atoms: _419  and  _420
REMARK  180  A    between atoms: _422  and  _424
REMARK  181  A    between atoms: _424  and  _425
REMARK  182  A    between atoms: _424  and  _427
REMARK  183  A    between atoms: _427  and  _428
REMARK  184  A    between atoms: _433  and  _435
REMARK  185  A    between atoms: _435  and  _436
REMARK  186  A    between atoms: _435  and  _438
REMARK  187  A    between atoms: _438  and  _439
REMARK  188  A    between atoms: _442  and  _444
REMARK  189  A    between atoms: _444  and  _445
REMARK  190  A    between atoms: _444  and  _447
REMARK  191  A    between atoms: _450  and  _452
REMARK  192  A    between atoms: _452  and  _453
REMARK  193  A    between atoms: _452  and  _455
REMARK  194  A    between atoms: _455  and  _456
REMARK  195  A    between atoms: _458  and  _460
REMARK  196  A    between atoms: _460  and  _461
REMARK  197  A    between atoms: _460  and  _463
REMARK  198  A    between atoms: _463  and  _464
REMARK  199  A    between atoms: _474  and  _476
REMARK  200  A    between atoms: _476  and  _477
REMARK  201  A    between atoms: _479  and  _481
REMARK  202  A    between atoms: _481  and  _482
REMARK  203  A    between atoms: _481  and  _484
REMARK  204  A    between atoms: _484  and  _485
REMARK  205  A    between atoms: _485  and  _486
REMARK  206  A    between atoms: _489  and  _491
REMARK  207  A    between atoms: _491  and  _492
REMARK  208  A    between atoms: _494  and  _496
REMARK  209  A    between atoms: _496  and  _497
REMARK  210  A    between atoms: _496  and  _499
REMARK  211  A    between atoms: _499  and  _500
REMARK  212  A    between atoms: _501  and  _503
REMARK  213  A    between atoms: _503  and  _504
REMARK  214  A    between atoms: _507  and  _509
REMARK  215  A    between atoms: _509  and  _510
REMARK  216  A    between atoms: _509  and  _512
REMARK  217  A    between atoms: _512  and  _513
REMARK  218  A    between atoms: _513  and  _514
REMARK  219  A    between atoms: _514  and  _515
REMARK  220  A    between atoms: _524  and  _526
REMARK  221  A    between atoms: _526  and  _527
REMARK  222  A    between atoms: _526  and  _529
REMARK  223  A    between atoms: _529  and  _530
REMARK  224  A    between atoms: _530  and  _531
REMARK  225  A    between atoms: _531  and  _532
REMARK  226  A    between atoms: _532  and  _533
REMARK  227  A    between atoms: _537  and  _539
REMARK  228  A    between atoms: _539  and  _540
REMARK  229  A    between atoms: _539  and  _542
REMARK  230  A    between atoms: _542  and  _543
REMARK  231  A    between atoms: _548  and  _549
REMARK  232  A    between atoms: _551  and  _553
REMARK  233  A    between atoms: _553  and  _554
REMARK  234  A    between atoms: _556  and  _558
REMARK  235  A    between atoms: _558  and  _559
REMARK  236  A    between atoms: _558  and  _561
REMARK  237  A    between atoms: _561  and  _562
REMARK  238  A    between atoms: _565  and  _567
REMARK  239  A    between atoms: _567  and  _568
REMARK  240  A    between atoms: _567  and  _570
REMARK  241  A    between atoms: _570  and  _571
REMARK  242  A    between atoms: _576  and  _577
REMARK                            x       y       z     vdW  Elec       q    Type
REMARK                         _______ _______ _______ _____ _____    ______ ____
ROOT
ATOM      1  O   HOH     1       9.463  32.574  49.312  0.00  0.00    +0.000 OA
ENDROOT
TORSDOF 0
REMARK  Name = ../refined-set-2016/1z6e/1z6e_pocket.pdb
REMARK  242 active torsions:
REMARK  status: ('A' for Active; 'I' for Inactive)
REMARK    1  A    between atoms: _1  and  _5
REMARK    2  A    between atoms: _5  and  _6
REMARK    3  A    between atoms: _5  and  _8
REMARK    4  A    between atoms: _8  and  _9
REMARK    5  A    between atoms: _12  and  _14
REMARK    6  A    between atoms: _14  and  _15
REMARK    7  A    between atoms: _14  and  _17
REMARK    8  A    between atoms: _20  and  _22
REMARK    9  A    between atoms: _22  and  _23
REMARK   10  A    between atoms: _22  and  _25
REMARK   11  A    between atoms: _25  and  _26
REMARK   12  A    between atoms: _31  and  _33
REMARK   13  A    between atoms: _33  and  _34
REMARK   14  A    between atoms: _33  and  _36
REMARK   15  A    between atoms: _38  and  _40
REMARK   16  A    between atoms: _40  and  _41
REMARK   17  A    between atoms: _40  and  _43
REMARK   18  A    between atoms: _43  and  _44
REMARK   19  A    between atoms: _44  and  _45
REMARK   20  A    between atoms: _50  and  _52
REMARK   21  A    between atoms: _52  and  _53
REMARK   22  A    between atoms: _52  and  _55
REMARK   23  A    between atoms: _55  and  _56
REMARK   24  A    between atoms: _62  and  _64
REMARK   25  A    between atoms: _64  and  _65
REMARK   26  A    between atoms: _64  and  _67
REMARK   27  A    between atoms: _67  and  _68
REMARK   28  A    between atoms: _71  and  _73
REMARK   29  A    between atoms: _73  and  _74
REMARK   30  A    between atoms: _73  and  _76
REMARK   31  A    between atoms: _76  and  _77
REMARK   32  A    between atoms: _77  and  _78
REMARK   33  A    between atoms: _78  and  _79
REMARK   34  A    between atoms: _79  and  _80
REMARK   35  A    between atoms: _84  and  _86
REMARK   36  A    between atoms: _86  and  _87
REMARK   37  A    between atoms: _86  and  _89
REMARK   38  A    between atoms: _89  and  _90
REMARK   39  A    between atoms: _90  and  _91
REMARK   40  A    between atoms: _94  and  _96
REMARK   41  A    between atoms: _96  and  _97
REMARK   42  A    between atoms: _96  and  _99
REMARK   43  A    between atoms: _99  and  _100
REMARK   44  A    between atoms: _103  and  _105
REMARK   45  A    between atoms: _105  and  _106
REMARK   46  A    between atoms: _105  and  _108
REMARK   47  A    between atoms: _108  and  _109
REMARK   48  A    between atoms: _114  and  _115
REMARK   49  A    between atoms: _117  and  _119
REMARK   50  A    between atoms: _119  and  _120
REMARK   51  A    between atoms: _119  and  _122
REMARK   52  A    between atoms: _122  and  _123
REMARK   53  A    between atoms: _126  and  _128
REMARK   54  A    between atoms: _128  and  _129
REMARK   55  A    between atoms: _128  and  _131
REMARK   56  A    between atoms: _131  and  _132
REMARK   57  A    between atoms: _135  and  _137
REMARK   58  A    between atoms: _137  and  _138
REMARK   59  A    between atoms: _137  and  _140
REMARK   60  A    between atoms: _143  and  _145
REMARK   61  A    between atoms: _145  and  _146
REMARK   62  A    between atoms: _148  and  _150
REMARK   63  A    between atoms: _150  and  _151
REMARK   64  A    between atoms: _150  and  _153
REMARK   65  A    between atoms: _153  and  _154
REMARK   66  A    between atoms: _154  and  _155
REMARK   67  A    between atoms: _155  and  _156
REMARK   68  A    between atoms: _165  and  _167
REMARK   69  A    between atoms: _167  and  _168
REMARK   70  A    between atoms: _167  and  _170
REMARK   71  A    between atoms: _170  and  _171
REMARK   72  A    between atoms: _176  and  _178
REMARK   73  A    between atoms: _178  and  _179
REMARK   74  A    between atoms: _178  and  _181
REMARK   75  A    between atoms: _181  and  _182
REMARK   76  A    between atoms: _182  and  _183
REMARK   77  A    between atoms: _186  and  _188
REMARK   78  A    between atoms: _188  and  _189
REMARK   79  A    between atoms: _188  and  _191
REMARK   80  A    between atoms: _191  and  _192
REMARK   81  A    between atoms: _192  and  _193
REMARK   82  A    between atoms: _193  and  _194
REMARK   83  A    between atoms: _194  and  _195
REMARK   84  A    between atoms: _199  and  _201
REMARK   85  A    between atoms: _201  and  _202
REMARK   86  A    between atoms: _204  and  _206
REMARK   87  A    between atoms: _206  and  _207
REMARK   88  A    between atoms: _206  and  _209
REMARK   89  A    between atoms: _209  and  _210
REMARK   90  A    between atoms: _210  and  _211
REMARK   91  A    between atoms: _211  and  _212
REMARK   92  A    between atoms: _221  and  _223
REMARK   93  A    between atoms: _223  and  _224
REMARK   94  A    between atoms: _223  and  _226
REMARK   95  A    between atoms: _226  and  _227
REMARK   96  A    between atoms: _227  and  _228
REMARK   97  A    between atoms: _233  and  _235
REMARK   98  A    between atoms: _235  and  _236
REMARK   99  A    between atoms: _235  and  _238
REMARK  100  A    between atoms: _238  and  _239
REMARK  101  A    between atoms: _242  and  _244
REMARK  102  A    between atoms: _244  and  _245
REMARK  103  A    between atoms: _244  and  _247
REMARK  104  A    between atoms: _250  and  _252
REMARK  105  A    between atoms: _252  and  _253
REMARK  106  A    between atoms: _252  and  _255
REMARK  107  A    between atoms: _255  and  _256
REMARK  108  A    between atoms: _258  and  _260
REMARK  109  A    between atoms: _260  and  _261
REMARK  110  A    between atoms: _260  and  _263
REMARK  111  A    between atoms: _263  and  _264
REMARK  112  A    between atoms: _266  and  _268
REMARK  113  A    between atoms: _268  and  _269
REMARK  114  A    between atoms: _268  and  _271
REMARK  115  A    between atoms: _271  and  _272
REMARK  116  A    between atoms: _278  and  _280
REMARK  117  A    between atoms: _280  and  _281
REMARK  118  A    between atoms: _280  and  _283
REMARK  119  A    between atoms: _283  and  _284
REMARK  120  A    between atoms: _287  and  _289
REMARK  121  A    between atoms: _289  and  _290
REMARK  122  A    between atoms: _289  and  _292
REMARK  123  A    between atoms: _292  and  _293
REMARK  124  A    between atoms: _296  and  _298
REMARK  125  A    between atoms: _298  and  _299
REMARK  126  A    between atoms: _298  and  _301
REMARK  127  A    between atoms: _301  and  _302
REMARK  128  A    between atoms: _305  and  _307
REMARK  129  A    between atoms: _307  and  _308
REMARK  130  A    between atoms: _307  and  _310
REMARK  131  A    between atoms: _310  and  _311
REMARK  132  A    between atoms: _311  and  _312
REMARK  133  A    between atoms: _314  and  _316
REMARK  134  A    between atoms: _316  and  _317
REMARK  135  A    between atoms: _316  and  _319
REMARK  136  A    between atoms: _321  and  _323
REMARK  137  A    between atoms: _323  and  _324
REMARK  138  A    between atoms: _327  and  _329
REMARK  139  A    between atoms: _329  and  _330
REMARK  140  A    between atoms: _332  and  _334
REMARK  141  A    between atoms: _334  and  _335
REMARK  142  A    between atoms: _334  and  _337
REMARK  143  A    between atoms: _337  and  _338
REMARK  144  A    between atoms: _343  and  _344
REMARK  145  A    between atoms: _346  and  _348
REMARK  146  A    between atoms: _348  and  _349
REMARK  147  A    between atoms: _348  and  _351
REMARK  148  A    between atoms: _351  and  _352
REMARK  149  A    between atoms: _352  and  _353
REMARK  150  A    between atoms: _356  and  _358
REMARK  151  A    between atoms: _358  and  _359
REMARK  152  A    between atoms: _358  and  _361
REMARK  153  A    between atoms: _361  and  _362
REMARK  154  A    between atoms: _365  and  _367
REMARK  155  A    between atoms: _367  and  _368
REMARK  156  A    between atoms: _371  and  _373
REMARK  157  A    between atoms: _373  and  _374
REMARK  158  A    between atoms: _373  and  _376
REMARK  159  A    between atoms: _376  and  _377
REMARK  160  A    between atoms: _377  and  _500
REMARK  161  A    between atoms: _378  and  _380
REMARK  162  A    between atoms: _380  and  _381
REMARK  163  A    between atoms: _380  and  _383
REMARK  164  A    between atoms: _383  and  _384
REMARK  165  A    between atoms: _384  and  _385
REMARK  166  A    between atoms: _390  and  _392
REMARK  167  A    between atoms: _392  and  _393
REMARK  168  A    between atoms: _395  and  _397
REMARK  169  A    between atoms: _397  and  _398
REMARK  170  A    between atoms: _397  and  _400
REMARK  171  A    between atoms: _400  and  _401
REMARK  172  A    between atoms: _404  and  _406
REMARK  173  A    between atoms: _406  and  _407
REMARK  174  A    between atoms: _406  and  _409
REMARK  175  A    between atoms: _409  and  _410
REMARK  176  A    between atoms: _412  and  _414
REMARK  177  A    between atoms: _414  and  _415
REMARK  178  A    between atoms: _417  and  _419
REMARK  179  A    between atoms: _419  and  _420
REMARK  180  A    between atoms: _422  and  _424
REMARK  181  A    between atoms: _424  and  _425
REMARK  182  A    between atoms: _424  and  _427
REMARK  183  A    between atoms: _427  and  _428
REMARK  184  A    between atoms: _433  and  _435
REMARK  185  A    between atoms: _435  and  _436
REMARK  186  A    between atoms: _435  and  _438
REMARK  187  A    between atoms: _438  and  _439
REMARK  188  A    between atoms: _442  and  _444
REMARK  189  A    between atoms: _444  and  _445
REMARK  190  A    between atoms: _444  and  _447
REMARK  191  A    between atoms: _450  and  _452
REMARK  192  A    between atoms: _452  and  _453
REMARK  193  A    between atoms: _452  and  _455
REMARK  194  A    between atoms: _455  and  _456
REMARK  195  A    between atoms: _458  and  _460
REMARK  196  A    between atoms: _460  and  _461
REMARK  197  A    between atoms: _460  and  _463
REMARK  198  A    between atoms: _463  and  _464
REMARK  199  A    between atoms: _474  and  _476
REMARK  200  A    between atoms: _476  and  _477
REMARK  201  A    between atoms: _479  and  _481
REMARK  202  A    between atoms: _481  and  _482
REMARK  203  A    between atoms: _481  and  _484
REMARK  204  A    between atoms: _484  and  _485
REMARK  205  A    between atoms: _485  and  _486
REMARK  206  A    between atoms: _489  and  _491
REMARK  207  A    between atoms: _491  and  _492
REMARK  208  A    between atoms: _494  and  _496
REMARK  209  A    between atoms: _496  and  _497
REMARK  210  A    between atoms: _496  and  _499
REMARK  211  A    between atoms: _499  and  _500
REMARK  212  A    between atoms: _501  and  _503
REMARK  213  A    between atoms: _503  and  _504
REMARK  214  A    between atoms: _507  and  _509
REMARK  215  A    between atoms: _509  and  _510
REMARK  216  A    between atoms: _509  and  _512
REMARK  217  A    between atoms: _512  and  _513
REMARK  218  A    between atoms: _513  and  _514
REMARK  219  A    between atoms: _514  and  _515
REMARK  220  A    between atoms: _524  and  _526
REMARK  221  A    between atoms: _526  and  _527
REMARK  222  A    between atoms: _526  and  _529
REMARK  223  A    between atoms: _529  and  _530
REMARK  224  A    between atoms: _530  and  _531
REMARK  225  A    between atoms: _531  and  _532
REMARK  226  A    between atoms: _532  and  _533
REMARK  227  A    between atoms: _537  and  _539
REMARK  228  A    between atoms: _539  and  _540
REMARK  229  A    between atoms: _539  and  _542
REMARK  230  A    between atoms: _542  and  _543
REMARK  231  A    between atoms: _548  and  _549
REMARK  232  A    between atoms: _551  and  _553
REMARK  233  A    between atoms: _553  and  _554
REMARK  234  A    between atoms: _556  and  _558
REMARK  235  A    between atoms: _558  and  _559
REMARK  236  A    between atoms: _558  and  _561
REMARK  237  A    between atoms: _561  and  _562
REMARK  238  A    between atoms: _565  and  _567
REMARK  239  A    between atoms: _567  and  _568
REMARK  240  A    between atoms: _567  and  _570
REMARK  241  A    between atoms: _570  and  _571
REMARK  242  A    between atoms: _576  and  _577
REMARK                            x       y       z     vdW  Elec       q    Type
REMARK                         _______ _______ _______ _____ _____    ______ ____
ROOT
ATOM      1  O   HOH     1      12.363  31.653  44.998  0.00  0.00    +0.000 OA
ENDROOT
TORSDOF 0
REMARK  Name = ../refined-set-2016/1z6e/1z6e_pocket.pdb
REMARK  242 active torsions:
REMARK  status: ('A' for Active; 'I' for Inactive)
REMARK    1  A    between atoms: _1  and  _5
REMARK    2  A    between atoms: _5  and  _6
REMARK    3  A    between atoms: _5  and  _8
REMARK    4  A    between atoms: _8  and  _9
REMARK    5  A    between atoms: _12  and  _14
REMARK    6  A    between atoms: _14  and  _15
REMARK    7  A    between atoms: _14  and  _17
REMARK    8  A    between atoms: _20  and  _22
REMARK    9  A    between atoms: _22  and  _23
REMARK   10  A    between atoms: _22  and  _25
REMARK   11  A    between atoms: _25  and  _26
REMARK   12  A    between atoms: _31  and  _33
REMARK   13  A    between atoms: _33  and  _34
REMARK   14  A    between atoms: _33  and  _36
REMARK   15  A    between atoms: _38  and  _40
REMARK   16  A    between atoms: _40  and  _41
REMARK   17  A    between atoms: _40  and  _43
REMARK   18  A    between atoms: _43  and  _44
REMARK   19  A    between atoms: _44  and  _45
REMARK   20  A    between atoms: _50  and  _52
REMARK   21  A    between atoms: _52  and  _53
REMARK   22  A    between atoms: _52  and  _55
REMARK   23  A    between atoms: _55  and  _56
REMARK   24  A    between atoms: _62  and  _64
REMARK   25  A    between atoms: _64  and  _65
REMARK   26  A    between atoms: _64  and  _67
REMARK   27  A    between atoms: _67  and  _68
REMARK   28  A    between atoms: _71  and  _73
REMARK   29  A    between atoms: _73  and  _74
REMARK   30  A    between atoms: _73  and  _76
REMARK   31  A    between atoms: _76  and  _77
REMARK   32  A    between atoms: _77  and  _78
REMARK   33  A    between atoms: _78  and  _79
REMARK   34  A    between atoms: _79  and  _80
REMARK   35  A    between atoms: _84  and  _86
REMARK   36  A    between atoms: _86  and  _87
REMARK   37  A    between atoms: _86  and  _89
REMARK   38  A    between atoms: _89  and  _90
REMARK   39  A    between atoms: _90  and  _91
REMARK   40  A    between atoms: _94  and  _96
REMARK   41  A    between atoms: _96  and  _97
REMARK   42  A    between atoms: _96  and  _99
REMARK   43  A    between atoms: _99  and  _100
REMARK   44  A    between atoms: _103  and  _105
REMARK   45  A    between atoms: _105  and  _106
REMARK   46  A    between atoms: _105  and  _108
REMARK   47  A    between atoms: _108  and  _109
REMARK   48  A    between atoms: _114  and  _115
REMARK   49  A    between atoms: _117  and  _119
REMARK   50  A    between atoms: _119  and  _120
REMARK   51  A    between atoms: _119  and  _122
REMARK   52  A    between atoms: _122  and  _123
REMARK   53  A    between atoms: _126  and  _128
REMARK   54  A    between atoms: _128  and  _129
REMARK   55  A    between atoms: _128  and  _131
REMARK   56  A    between atoms: _131  and  _132
REMARK   57  A    between atoms: _135  and  _137
REMARK   58  A    between atoms: _137  and  _138
REMARK   59  A    between atoms: _137  and  _140
REMARK   60  A    between atoms: _143  and  _145
REMARK   61  A    between atoms: _145  and  _146
REMARK   62  A    between atoms: _148  and  _150
REMARK   63  A    between atoms: _150  and  _151
REMARK   64  A    between atoms: _150  and  _153
REMARK   65  A    between atoms: _153  and  _154
REMARK   66  A    between atoms: _154  and  _155
REMARK   67  A    between atoms: _155  and  _156
REMARK   68  A    between atoms: _165  and  _167
REMARK   69  A    between atoms: _167  and  _168
REMARK   70  A    between atoms: _167  and  _170
REMARK   71  A    between atoms: _170  and  _171
REMARK   72  A    between atoms: _176  and  _178
REMARK   73  A    between atoms: _178  and  _179
REMARK   74  A    between atoms: _178  and  _181
REMARK   75  A    between atoms: _181  and  _182
REMARK   76  A    between atoms: _182  and  _183
REMARK   77  A    between atoms: _186  and  _188
REMARK   78  A    between atoms: _188  and  _189
REMARK   79  A    between atoms: _188  and  _191
REMARK   80  A    between atoms: _191  and  _192
REMARK   81  A    between atoms: _192  and  _193
REMARK   82  A    between atoms: _193  and  _194
REMARK   83  A    between atoms: _194  and  _195
REMARK   84  A    between atoms: _199  and  _201
REMARK   85  A    between atoms: _201  and  _202
REMARK   86  A    between atoms: _204  and  _206
REMARK   87  A    between atoms: _206  and  _207
REMARK   88  A    between atoms: _206  and  _209
REMARK   89  A    between atoms: _209  and  _210
REMARK   90  A    between atoms: _210  and  _211
REMARK   91  A    between atoms: _211  and  _212
REMARK   92  A    between atoms: _221  and  _223
REMARK   93  A    between atoms: _223  and  _224
REMARK   94  A    between atoms: _223  and  _226
REMARK   95  A    between atoms: _226  and  _227
REMARK   96  A    between atoms: _227  and  _228
REMARK   97  A    between atoms: _233  and  _235
REMARK   98  A    between atoms: _235  and  _236
REMARK   99  A    between atoms: _235  and  _238
REMARK  100  A    between atoms: _238  and  _239
REMARK  101  A    between atoms: _242  and  _244
REMARK  102  A    between atoms: _244  and  _245
REMARK  103  A    between atoms: _244  and  _247
REMARK  104  A    between atoms: _250  and  _252
REMARK  105  A    between atoms: _252  and  _253
REMARK  106  A    between atoms: _252  and  _255
REMARK  107  A    between atoms: _255  and  _256
REMARK  108  A    between atoms: _258  and  _260
REMARK  109  A    between atoms: _260  and  _261
REMARK  110  A    between atoms: _260  and  _263
REMARK  111  A    between atoms: _263  and  _264
REMARK  112  A    between atoms: _266  and  _268
REMARK  113  A    between atoms: _268  and  _269
REMARK  114  A    between atoms: _268  and  _271
REMARK  115  A    between atoms: _271  and  _272
REMARK  116  A    between atoms: _278  and  _280
REMARK  117  A    between atoms: _280  and  _281
REMARK  118  A    between atoms: _280  and  _283
REMARK  119  A    between atoms: _283  and  _284
REMARK  120  A    between atoms: _287  and  _289
REMARK  121  A    between atoms: _289  and  _290
REMARK  122  A    between atoms: _289  and  _292
REMARK  123  A    between atoms: _292  and  _293
REMARK  124  A    between atoms: _296  and  _298
REMARK  125  A    between atoms: _298  and  _299
REMARK  126  A    between atoms: _298  and  _301
REMARK  127  A    between atoms: _301  and  _302
REMARK  128  A    between atoms: _305  and  _307
REMARK  129  A    between atoms: _307  and  _308
REMARK  130  A    between atoms: _307  and  _310
REMARK  131  A    between atoms: _310  and  _311
REMARK  132  A    between atoms: _311  and  _312
REMARK  133  A    between atoms: _314  and  _316
REMARK  134  A    between atoms: _316  and  _317
REMARK  135  A    between atoms: _316  and  _319
REMARK  136  A    between atoms: _321  and  _323
REMARK  137  A    between atoms: _323  and  _324
REMARK  138  A    between atoms: _327  and  _329
REMARK  139  A    between atoms: _329  and  _330
REMARK  140  A    between atoms: _332  and  _334
REMARK  141  A    between atoms: _334  and  _335
REMARK  142  A    between atoms: _334  and  _337
REMARK  143  A    between atoms: _337  and  _338
REMARK  144  A    between atoms: _343  and  _344
REMARK  145  A    between atoms: _346  and  _348
REMARK  146  A    between atoms: _348  and  _349
REMARK  147  A    between atoms: _348  and  _351
REMARK  148  A    between atoms: _351  and  _352
REMARK  149  A    between atoms: _352  and  _353
REMARK  150  A    between atoms: _356  and  _358
REMARK  151  A    between atoms: _358  and  _359
REMARK  152  A    between atoms: _358  and  _361
REMARK  153  A    between atoms: _361  and  _362
REMARK  154  A    between atoms: _365  and  _367
REMARK  155  A    between atoms: _367  and  _368
REMARK  156  A    between atoms: _371  and  _373
REMARK  157  A    between atoms: _373  and  _374
REMARK  158  A    between atoms: _373  and  _376
REMARK  159  A    between atoms: _376  and  _377
REMARK  160  A    between atoms: _377  and  _500
REMARK  161  A    between atoms: _378  and  _380
REMARK  162  A    between atoms: _380  and  _381
REMARK  163  A    between atoms: _380  and  _383
REMARK  164  A    between atoms: _383  and  _384
REMARK  165  A    between atoms: _384  and  _385
REMARK  166  A    between atoms: _390  and  _392
REMARK  167  A    between atoms: _392  and  _393
REMARK  168  A    between atoms: _395  and  _397
REMARK  169  A    between atoms: _397  and  _398
REMARK  170  A    between atoms: _397  and  _400
REMARK  171  A    between atoms: _400  and  _401
REMARK  172  A    between atoms: _404  and  _406
REMARK  173  A    between atoms: _406  and  _407
REMARK  174  A    between atoms: _406  and  _409
REMARK  175  A    between atoms: _409  and  _410
REMARK  176  A    between atoms: _412  and  _414
REMARK  177  A    between atoms: _414  and  _415
REMARK  178  A    between atoms: _417  and  _419
REMARK  179  A    between atoms: _419  and  _420
REMARK  180  A    between atoms: _422  and  _424
REMARK  181  A    between atoms: _424  and  _425
REMARK  182  A    between atoms: _424  and  _427
REMARK  183  A    between atoms: _427  and  _428
REMARK  184  A    between atoms: _433  and  _435
REMARK  185  A    between atoms: _435  and  _436
REMARK  186  A    between atoms: _435  and  _438
REMARK  187  A    between atoms: _438  and  _439
REMARK  188  A    between atoms: _442  and  _444
REMARK  189  A    between atoms: _444  and  _445
REMARK  190  A    between atoms: _444  and  _447
REMARK  191  A    between atoms: _450  and  _452
REMARK  192  A    between atoms: _452  and  _453
REMARK  193  A    between atoms: _452  and  _455
REMARK  194  A    between atoms: _455  and  _456
REMARK  195  A    between atoms: _458  and  _460
REMARK  196  A    between atoms: _460  and  _461
REMARK  197  A    between atoms: _460  and  _463
REMARK  198  A    between atoms: _463  and  _464
REMARK  199  A    between atoms: _474  and  _476
REMARK  200  A    between atoms: _476  and  _477
REMARK  201  A    between atoms: _479  and  _481
REMARK  202  A    between atoms: _481  and  _482
REMARK  203  A    between atoms: _481  and  _484
REMARK  204  A    between atoms: _484  and  _485
REMARK  205  A    between atoms: _485  and  _486
REMARK  206  A    between atoms: _489  and  _491
REMARK  207  A    between atoms: _491  and  _492
REMARK  208  A    between atoms: _494  and  _496
REMARK  209  A    between atoms: _496  and  _497
REMARK  210  A    between atoms: _496  and  _499
REMARK  211  A    between atoms: _499  and  _500
REMARK  212  A    between atoms: _501  and  _503
REMARK  213  A    between atoms: _503  and  _504
REMARK  214  A    between atoms: _507  and  _509
REMARK  215  A    between atoms: _509  and  _510
REMARK  216  A    between atoms: _509  and  _512
REMARK  217  A    between atoms: _512  and  _513
REMARK  218  A    between atoms: _513  and  _514
REMARK  219  A    between atoms: _514  and  _515
REMARK  220  A    between atoms: _524  and  _526
REMARK  221  A    between atoms: _526  and  _527
REMARK  222  A    between atoms: _526  and  _529
REMARK  223  A    between atoms: _529  and  _530
REMARK  224  A    between atoms: _530  and  _531
REMARK  225  A    between atoms: _531  and  _532
REMARK  226  A    between atoms: _532  and  _533
REMARK  227  A    between atoms: _537  and  _539
REMARK  228  A    between atoms: _539  and  _540
REMARK  229  A    between atoms: _539  and  _542
REMARK  230  A    between atoms: _542  and  _543
REMARK  231  A    between atoms: _548  and  _549
REMARK  232  A    between atoms: _551  and  _553
REMARK  233  A    between atoms: _553  and  _554
REMARK  234  A    between atoms: _556  and  _558
REMARK  235  A    between atoms: _558  and  _559
REMARK  236  A    between atoms: _558  and  _561
REMARK  237  A    between atoms: _561  and  _562
REMARK  238  A    between atoms: _565  and  _567
REMARK  239  A    between atoms: _567  and  _568
REMARK  240  A    between atoms: _567  and  _570
REMARK  241  A    between atoms: _570  and  _571
REMARK  242  A    between atoms: _576  and  _577
REMARK                            x       y       z     vdW  Elec       q    Type
REMARK                         _______ _______ _______ _____ _____    ______ ____
ROOT
ATOM      1  O   HOH     1       9.654  27.507  58.014  0.00  0.00    +0.000 OA
ENDROOT
TORSDOF 0
REMARK  Name = ../refined-set-2016/1z6e/1z6e_pocket.pdb
REMARK  242 active torsions:
REMARK  status: ('A' for Active; 'I' for Inactive)
REMARK    1  A    between atoms: _1  and  _5
REMARK    2  A    between atoms: _5  and  _6
REMARK    3  A    between atoms: _5  and  _8
REMARK    4  A    between atoms: _8  and  _9
REMARK    5  A    between atoms: _12  and  _14
REMARK    6  A    between atoms: _14  and  _15
REMARK    7  A    between atoms: _14  and  _17
REMARK    8  A    between atoms: _20  and  _22
REMARK    9  A    between atoms: _22  and  _23
REMARK   10  A    between atoms: _22  and  _25
REMARK   11  A    between atoms: _25  and  _26
REMARK   12  A    between atoms: _31  and  _33
REMARK   13  A    between atoms: _33  and  _34
REMARK   14  A    between atoms: _33  and  _36
REMARK   15  A    between atoms: _38  and  _40
REMARK   16  A    between atoms: _40  and  _41
REMARK   17  A    between atoms: _40  and  _43
REMARK   18  A    between atoms: _43  and  _44
REMARK   19  A    between atoms: _44  and  _45
REMARK   20  A    between atoms: _50  and  _52
REMARK   21  A    between atoms: _52  and  _53
REMARK   22  A    between atoms: _52  and  _55
REMARK   23  A    between atoms: _55  and  _56
REMARK   24  A    between atoms: _62  and  _64
REMARK   25  A    between atoms: _64  and  _65
REMARK   26  A    between atoms: _64  and  _67
REMARK   27  A    between atoms: _67  and  _68
REMARK   28  A    between atoms: _71  and  _73
REMARK   29  A    between atoms: _73  and  _74
REMARK   30  A    between atoms: _73  and  _76
REMARK   31  A    between atoms: _76  and  _77
REMARK   32  A    between atoms: _77  and  _78
REMARK   33  A    between atoms: _78  and  _79
REMARK   34  A    between atoms: _79  and  _80
REMARK   35  A    between atoms: _84  and  _86
REMARK   36  A    between atoms: _86  and  _87
REMARK   37  A    between atoms: _86  and  _89
REMARK   38  A    between atoms: _89  and  _90
REMARK   39  A    between atoms: _90  and  _91
REMARK   40  A    between atoms: _94  and  _96
REMARK   41  A    between atoms: _96  and  _97
REMARK   42  A    between atoms: _96  and  _99
REMARK   43  A    between atoms: _99  and  _100
REMARK   44  A    between atoms: _103  and  _105
REMARK   45  A    between atoms: _105  and  _106
REMARK   46  A    between atoms: _105  and  _108
REMARK   47  A    between atoms: _108  and  _109
REMARK   48  A    between atoms: _114  and  _115
REMARK   49  A    between atoms: _117  and  _119
REMARK   50  A    between atoms: _119  and  _120
REMARK   51  A    between atoms: _119  and  _122
REMARK   52  A    between atoms: _122  and  _123
REMARK   53  A    between atoms: _126  and  _128
REMARK   54  A    between atoms: _128  and  _129
REMARK   55  A    between atoms: _128  and  _131
REMARK   56  A    between atoms: _131  and  _132
REMARK   57  A    between atoms: _135  and  _137
REMARK   58  A    between atoms: _137  and  _138
REMARK   59  A    between atoms: _137  and  _140
REMARK   60  A    between atoms: _143  and  _145
REMARK   61  A    between atoms: _145  and  _146
REMARK   62  A    between atoms: _148  and  _150
REMARK   63  A    between atoms: _150  and  _151
REMARK   64  A    between atoms: _150  and  _153
REMARK   65  A    between atoms: _153  and  _154
REMARK   66  A    between atoms: _154  and  _155
REMARK   67  A    between atoms: _155  and  _156
REMARK   68  A    between atoms: _165  and  _167
REMARK   69  A    between atoms: _167  and  _168
REMARK   70  A    between atoms: _167  and  _170
REMARK   71  A    between atoms: _170  and  _171
REMARK   72  A    between atoms: _176  and  _178
REMARK   73  A    between atoms: _178  and  _179
REMARK   74  A    between atoms: _178  and  _181
REMARK   75  A    between atoms: _181  and  _182
REMARK   76  A    between atoms: _182  and  _183
REMARK   77  A    between atoms: _186  and  _188
REMARK   78  A    between atoms: _188  and  _189
REMARK   79  A    between atoms: _188  and  _191
REMARK   80  A    between atoms: _191  and  _192
REMARK   81  A    between atoms: _192  and  _193
REMARK   82  A    between atoms: _193  and  _194
REMARK   83  A    between atoms: _194  and  _195
REMARK   84  A    between atoms: _199  and  _201
REMARK   85  A    between atoms: _201  and  _202
REMARK   86  A    between atoms: _204  and  _206
REMARK   87  A    between atoms: _206  and  _207
REMARK   88  A    between atoms: _206  and  _209
REMARK   89  A    between atoms: _209  and  _210
REMARK   90  A    between atoms: _210  and  _211
REMARK   91  A    between atoms: _211  and  _212
REMARK   92  A    between atoms: _221  and  _223
REMARK   93  A    between atoms: _223  and  _224
REMARK   94  A    between atoms: _223  and  _226
REMARK   95  A    between atoms: _226  and  _227
REMARK   96  A    between atoms: _227  and  _228
REMARK   97  A    between atoms: _233  and  _235
REMARK   98  A    between atoms: _235  and  _236
REMARK   99  A    between atoms: _235  and  _238
REMARK  100  A    between atoms: _238  and  _239
REMARK  101  A    between atoms: _242  and  _244
REMARK  102  A    between atoms: _244  and  _245
REMARK  103  A    between atoms: _244  and  _247
REMARK  104  A    between atoms: _250  and  _252
REMARK  105  A    between atoms: _252  and  _253
REMARK  106  A    between atoms: _252  and  _255
REMARK  107  A    between atoms: _255  and  _256
REMARK  108  A    between atoms: _258  and  _260
REMARK  109  A    between atoms: _260  and  _261
REMARK  110  A    between atoms: _260  and  _263
REMARK  111  A    between atoms: _263  and  _264
REMARK  112  A    between atoms: _266  and  _268
REMARK  113  A    between atoms: _268  and  _269
REMARK  114  A    between atoms: _268  and  _271
REMARK  115  A    between atoms: _271  and  _272
REMARK  116  A    between atoms: _278  and  _280
REMARK  117  A    between atoms: _280  and  _281
REMARK  118  A    between atoms: _280  and  _283
REMARK  119  A    between atoms: _283  and  _284
REMARK  120  A    between atoms: _287  and  _289
REMARK  121  A    between atoms: _289  and  _290
REMARK  122  A    between atoms: _289  and  _292
REMARK  123  A    between atoms: _292  and  _293
REMARK  124  A    between atoms: _296  and  _298
REMARK  125  A    between atoms: _298  and  _299
REMARK  126  A    between atoms: _298  and  _301
REMARK  127  A    between atoms: _301  and  _302
REMARK  128  A    between atoms: _305  and  _307
REMARK  129  A    between atoms: _307  and  _308
REMARK  130  A    between atoms: _307  and  _310
REMARK  131  A    between atoms: _310  and  _311
REMARK  132  A    between atoms: _311  and  _312
REMARK  133  A    between atoms: _314  and  _316
REMARK  134  A    between atoms: _316  and  _317
REMARK  135  A    between atoms: _316  and  _319
REMARK  136  A    between atoms: _321  and  _323
REMARK  137  A    between atoms: _323  and  _324
REMARK  138  A    between atoms: _327  and  _329
REMARK  139  A    between atoms: _329  and  _330
REMARK  140  A    between atoms: _332  and  _334
REMARK  141  A    between atoms: _334  and  _335
REMARK  142  A    between atoms: _334  and  _337
REMARK  143  A    between atoms: _337  and  _338
REMARK  144  A    between atoms: _343  and  _344
REMARK  145  A    between atoms: _346  and  _348
REMARK  146  A    between atoms: _348  and  _349
REMARK  147  A    between atoms: _348  and  _351
REMARK  148  A    between atoms: _351  and  _352
REMARK  149  A    between atoms: _352  and  _353
REMARK  150  A    between atoms: _356  and  _358
REMARK  151  A    between atoms: _358  and  _359
REMARK  152  A    between atoms: _358  and  _361
REMARK  153  A    between atoms: _361  and  _362
REMARK  154  A    between atoms: _365  and  _367
REMARK  155  A    between atoms: _367  and  _368
REMARK  156  A    between atoms: _371  and  _373
REMARK  157  A    between atoms: _373  and  _374
REMARK  158  A    between atoms: _373  and  _376
REMARK  159  A    between atoms: _376  and  _377
REMARK  160  A    between atoms: _377  and  _500
REMARK  161  A    between atoms: _378  and  _380
REMARK  162  A    between atoms: _380  and  _381
REMARK  163  A    between atoms: _380  and  _383
REMARK  164  A    between atoms: _383  and  _384
REMARK  165  A    between atoms: _384  and  _385
REMARK  166  A    between atoms: _390  and  _392
REMARK  167  A    between atoms: _392  and  _393
REMARK  168  A    between atoms: _395  and  _397
REMARK  169  A    between atoms: _397  and  _398
REMARK  170  A    between atoms: _397  and  _400
REMARK  171  A    between atoms: _400  and  _401
REMARK  172  A    between atoms: _404  and  _406
REMARK  173  A    between atoms: _406  and  _407
REMARK  174  A    between atoms: _406  and  _409
REMARK  175  A    between atoms: _409  and  _410
REMARK  176  A    between atoms: _412  and  _414
REMARK  177  A    between atoms: _414  and  _415
REMARK  178  A    between atoms: _417  and  _419
REMARK  179  A    between atoms: _419  and  _420
REMARK  180  A    between atoms: _422  and  _424
REMARK  181  A    between atoms: _424  and  _425
REMARK  182  A    between atoms: _424  and  _427
REMARK  183  A    between atoms: _427  and  _428
REMARK  184  A    between atoms: _433  and  _435
REMARK  185  A    between atoms: _435  and  _436
REMARK  186  A    between atoms: _435  and  _438
REMARK  187  A    between atoms: _438  and  _439
REMARK  188  A    between atoms: _442  and  _444
REMARK  189  A    between atoms: _444  and  _445
REMARK  190  A    between atoms: _444  and  _447
REMARK  191  A    between atoms: _450  and  _452
REMARK  192  A    between atoms: _452  and  _453
REMARK  193  A    between atoms: _452  and  _455
REMARK  194  A    between atoms: _455  and  _456
REMARK  195  A    between atoms: _458  and  _460
REMARK  196  A    between atoms: _460  and  _461
REMARK  197  A    between atoms: _460  and  _463
REMARK  198  A    between atoms: _463  and  _464
REMARK  199  A    between atoms: _474  and  _476
REMARK  200  A    between atoms: _476  and  _477
REMARK  201  A    between atoms: _479  and  _481
REMARK  202  A    between atoms: _481  and  _482
REMARK  203  A    between atoms: _481  and  _484
REMARK  204  A    between atoms: _484  and  _485
REMARK  205  A    between atoms: _485  and  _486
REMARK  206  A    between atoms: _489  and  _491
REMARK  207  A    between atoms: _491  and  _492
REMARK  208  A    between atoms: _494  and  _496
REMARK  209  A    between atoms: _496  and  _497
REMARK  210  A    between atoms: _496  and  _499
REMARK  211  A    between atoms: _499  and  _500
REMARK  212  A    between atoms: _501  and  _503
REMARK  213  A    between atoms: _503  and  _504
REMARK  214  A    between atoms: _507  and  _509
REMARK  215  A    between atoms: _509  and  _510
REMARK  216  A    between atoms: _509  and  _512
REMARK  217  A    between atoms: _512  and  _513
REMARK  218  A    between atoms: _513  and  _514
REMARK  219  A    between atoms: _514  and  _515
REMARK  220  A    between atoms: _524  and  _526
REMARK  221  A    between atoms: _526  and  _527
REMARK  222  A    between atoms: _526  and  _529
REMARK  223  A    between atoms: _529  and  _530
REMARK  224  A    between atoms: _530  and  _531
REMARK  225  A    between atoms: _531  and  _532
REMARK  226  A    between atoms: _532  and  _533
REMARK  227  A    between atoms: _537  and  _539
REMARK  228  A    between atoms: _539  and  _540
REMARK  229  A    between atoms: _539  and  _542
REMARK  230  A    between atoms: _542  and  _543
REMARK  231  A    between atoms: _548  and  _549
REMARK  232  A    between atoms: _551  and  _553
REMARK  233  A    between atoms: _553  and  _554
REMARK  234  A    between atoms: _556  and  _558
REMARK  235  A    between atoms: _558  and  _559
REMARK  236  A    between atoms: _558  and  _561
REMARK  237  A    between atoms: _561  and  _562
REMARK  238  A    between atoms: _565  and  _567
REMARK  239  A    between atoms: _567  and  _568
REMARK  240  A    between atoms: _567  and  _570
REMARK  241  A    between atoms: _570  and  _571
REMARK  242  A    between atoms: _576  and  _577
REMARK                            x       y       z     vdW  Elec       q    Type
REMARK                         _______ _______ _______ _____ _____    ______ ____
ROOT
ATOM      1  O   HOH     1      10.022  32.695  46.382  0.00  0.00    +0.000 OA
ENDROOT
TORSDOF 0
REMARK  Name = ../refined-set-2016/1z6e/1z6e_pocket.pdb
REMARK  242 active torsions:
REMARK  status: ('A' for Active; 'I' for Inactive)
REMARK    1  A    between atoms: _1  and  _5
REMARK    2  A    between atoms: _5  and  _6
REMARK    3  A    between atoms: _5  and  _8
REMARK    4  A    between atoms: _8  and  _9
REMARK    5  A    between atoms: _12  and  _14
REMARK    6  A    between atoms: _14  and  _15
REMARK    7  A    between atoms: _14  and  _17
REMARK    8  A    between atoms: _20  and  _22
REMARK    9  A    between atoms: _22  and  _23
REMARK   10  A    between atoms: _22  and  _25
REMARK   11  A    between atoms: _25  and  _26
REMARK   12  A    between atoms: _31  and  _33
REMARK   13  A    between atoms: _33  and  _34
REMARK   14  A    between atoms: _33  and  _36
REMARK   15  A    between atoms: _38  and  _40
REMARK   16  A    between atoms: _40  and  _41
REMARK   17  A    between atoms: _40  and  _43
REMARK   18  A    between atoms: _43  and  _44
REMARK   19  A    between atoms: _44  and  _45
REMARK   20  A    between atoms: _50  and  _52
REMARK   21  A    between atoms: _52  and  _53
REMARK   22  A    between atoms: _52  and  _55
REMARK   23  A    between atoms: _55  and  _56
REMARK   24  A    between atoms: _62  and  _64
REMARK   25  A    between atoms: _64  and  _65
REMARK   26  A    between atoms: _64  and  _67
REMARK   27  A    between atoms: _67  and  _68
REMARK   28  A    between atoms: _71  and  _73
REMARK   29  A    between atoms: _73  and  _74
REMARK   30  A    between atoms: _73  and  _76
REMARK   31  A    between atoms: _76  and  _77
REMARK   32  A    between atoms: _77  and  _78
REMARK   33  A    between atoms: _78  and  _79
REMARK   34  A    between atoms: _79  and  _80
REMARK   35  A    between atoms: _84  and  _86
REMARK   36  A    between atoms: _86  and  _87
REMARK   37  A    between atoms: _86  and  _89
REMARK   38  A    between atoms: _89  and  _90
REMARK   39  A    between atoms: _90  and  _91
REMARK   40  A    between atoms: _94  and  _96
REMARK   41  A    between atoms: _96  and  _97
REMARK   42  A    between atoms: _96  and  _99
REMARK   43  A    between atoms: _99  and  _100
REMARK   44  A    between atoms: _103  and  _105
REMARK   45  A    between atoms: _105  and  _106
REMARK   46  A    between atoms: _105  and  _108
REMARK   47  A    between atoms: _108  and  _109
REMARK   48  A    between atoms: _114  and  _115
REMARK   49  A    between atoms: _117  and  _119
REMARK   50  A    between atoms: _119  and  _120
REMARK   51  A    between atoms: _119  and  _122
REMARK   52  A    between atoms: _122  and  _123
REMARK   53  A    between atoms: _126  and  _128
REMARK   54  A    between atoms: _128  and  _129
REMARK   55  A    between atoms: _128  and  _131
REMARK   56  A    between atoms: _131  and  _132
REMARK   57  A    between atoms: _135  and  _137
REMARK   58  A    between atoms: _137  and  _138
REMARK   59  A    between atoms: _137  and  _140
REMARK   60  A    between atoms: _143  and  _145
REMARK   61  A    between atoms: _145  and  _146
REMARK   62  A    between atoms: _148  and  _150
REMARK   63  A    between atoms: _150  and  _151
REMARK   64  A    between atoms: _150  and  _153
REMARK   65  A    between atoms: _153  and  _154
REMARK   66  A    between atoms: _154  and  _155
REMARK   67  A    between atoms: _155  and  _156
REMARK   68  A    between atoms: _165  and  _167
REMARK   69  A    between atoms: _167  and  _168
REMARK   70  A    between atoms: _167  and  _170
REMARK   71  A    between atoms: _170  and  _171
REMARK   72  A    between atoms: _176  and  _178
REMARK   73  A    between atoms: _178  and  _179
REMARK   74  A    between atoms: _178  and  _181
REMARK   75  A    between atoms: _181  and  _182
REMARK   76  A    between atoms: _182  and  _183
REMARK   77  A    between atoms: _186  and  _188
REMARK   78  A    between atoms: _188  and  _189
REMARK   79  A    between atoms: _188  and  _191
REMARK   80  A    between atoms: _191  and  _192
REMARK   81  A    between atoms: _192  and  _193
REMARK   82  A    between atoms: _193  and  _194
REMARK   83  A    between atoms: _194  and  _195
REMARK   84  A    between atoms: _199  and  _201
REMARK   85  A    between atoms: _201  and  _202
REMARK   86  A    between atoms: _204  and  _206
REMARK   87  A    between atoms: _206  and  _207
REMARK   88  A    between atoms: _206  and  _209
REMARK   89  A    between atoms: _209  and  _210
REMARK   90  A    between atoms: _210  and  _211
REMARK   91  A    between atoms: _211  and  _212
REMARK   92  A    between atoms: _221  and  _223
REMARK   93  A    between atoms: _223  and  _224
REMARK   94  A    between atoms: _223  and  _226
REMARK   95  A    between atoms: _226  and  _227
REMARK   96  A    between atoms: _227  and  _228
REMARK   97  A    between atoms: _233  and  _235
REMARK   98  A    between atoms: _235  and  _236
REMARK   99  A    between atoms: _235  and  _238
REMARK  100  A    between atoms: _238  and  _239
REMARK  101  A    between atoms: _242  and  _244
REMARK  102  A    between atoms: _244  and  _245
REMARK  103  A    between atoms: _244  and  _247
REMARK  104  A    between atoms: _250  and  _252
REMARK  105  A    between atoms: _252  and  _253
REMARK  106  A    between atoms: _252  and  _255
REMARK  107  A    between atoms: _255  and  _256
REMARK  108  A    between atoms: _258  and  _260
REMARK  109  A    between atoms: _260  and  _261
REMARK  110  A    between atoms: _260  and  _263
REMARK  111  A    between atoms: _263  and  _264
REMARK  112  A    between atoms: _266  and  _268
REMARK  113  A    between atoms: _268  and  _269
REMARK  114  A    between atoms: _268  and  _271
REMARK  115  A    between atoms: _271  and  _272
REMARK  116  A    between atoms: _278  and  _280
REMARK  117  A    between atoms: _280  and  _281
REMARK  118  A    between atoms: _280  and  _283
REMARK  119  A    between atoms: _283  and  _284
REMARK  120  A    between atoms: _287  and  _289
REMARK  121  A    between atoms: _289  and  _290
REMARK  122  A    between atoms: _289  and  _292
REMARK  123  A    between atoms: _292  and  _293
REMARK  124  A    between atoms: _296  and  _298
REMARK  125  A    between atoms: _298  and  _299
REMARK  126  A    between atoms: _298  and  _301
REMARK  127  A    between atoms: _301  and  _302
REMARK  128  A    between atoms: _305  and  _307
REMARK  129  A    between atoms: _307  and  _308
REMARK  130  A    between atoms: _307  and  _310
REMARK  131  A    between atoms: _310  and  _311
REMARK  132  A    between atoms: _311  and  _312
REMARK  133  A    between atoms: _314  and  _316
REMARK  134  A    between atoms: _316  and  _317
REMARK  135  A    between atoms: _316  and  _319
REMARK  136  A    between atoms: _321  and  _323
REMARK  137  A    between atoms: _323  and  _324
REMARK  138  A    between atoms: _327  and  _329
REMARK  139  A    between atoms: _329  and  _330
REMARK  140  A    between atoms: _332  and  _334
REMARK  141  A    between atoms: _334  and  _335
REMARK  142  A    between atoms: _334  and  _337
REMARK  143  A    between atoms: _337  and  _338
REMARK  144  A    between atoms: _343  and  _344
REMARK  145  A    between atoms: _346  and  _348
REMARK  146  A    between atoms: _348  and  _349
REMARK  147  A    between atoms: _348  and  _351
REMARK  148  A    between atoms: _351  and  _352
REMARK  149  A    between atoms: _352  and  _353
REMARK  150  A    between atoms: _356  and  _358
REMARK  151  A    between atoms: _358  and  _359
REMARK  152  A    between atoms: _358  and  _361
REMARK  153  A    between atoms: _361  and  _362
REMARK  154  A    between atoms: _365  and  _367
REMARK  155  A    between atoms: _367  and  _368
REMARK  156  A    between atoms: _371  and  _373
REMARK  157  A    between atoms: _373  and  _374
REMARK  158  A    between atoms: _373  and  _376
REMARK  159  A    between atoms: _376  and  _377
REMARK  160  A    between atoms: _377  and  _500
REMARK  161  A    between atoms: _378  and  _380
REMARK  162  A    between atoms: _380  and  _381
REMARK  163  A    between atoms: _380  and  _383
REMARK  164  A    between atoms: _383  and  _384
REMARK  165  A    between atoms: _384  and  _385
REMARK  166  A    between atoms: _390  and  _392
REMARK  167  A    between atoms: _392  and  _393
REMARK  168  A    between atoms: _395  and  _397
REMARK  169  A    between atoms: _397  and  _398
REMARK  170  A    between atoms: _397  and  _400
REMARK  171  A    between atoms: _400  and  _401
REMARK  172  A    between atoms: _404  and  _406
REMARK  173  A    between atoms: _406  and  _407
REMARK  174  A    between atoms: _406  and  _409
REMARK  175  A    between atoms: _409  and  _410
REMARK  176  A    between atoms: _412  and  _414
REMARK  177  A    between atoms: _414  and  _415
REMARK  178  A    between atoms: _417  and  _419
REMARK  179  A    between atoms: _419  and  _420
REMARK  180  A    between atoms: _422  and  _424
REMARK  181  A    between atoms: _424  and  _425
REMARK  182  A    between atoms: _424  and  _427
REMARK  183  A    between atoms: _427  and  _428
REMARK  184  A    between atoms: _433  and  _435
REMARK  185  A    between atoms: _435  and  _436
REMARK  186  A    between atoms: _435  and  _438
REMARK  187  A    between atoms: _438  and  _439
REMARK  188  A    between atoms: _442  and  _444
REMARK  189  A    between atoms: _444  and  _445
REMARK  190  A    between atoms: _444  and  _447
REMARK  191  A    between atoms: _450  and  _452
REMARK  192  A    between atoms: _452  and  _453
REMARK  193  A    between atoms: _452  and  _455
REMARK  194  A    between atoms: _455  and  _456
REMARK  195  A    between atoms: _458  and  _460
REMARK  196  A    between atoms: _460  and  _461
REMARK  197  A    between atoms: _460  and  _463
REMARK  198  A    between atoms: _463  and  _464
REMARK  199  A    between atoms: _474  and  _476
REMARK  200  A    between atoms: _476  and  _477
REMARK  201  A    between atoms: _479  and  _481
REMARK  202  A    between atoms: _481  and  _482
REMARK  203  A    between atoms: _481  and  _484
REMARK  204  A    between atoms: _484  and  _485
REMARK  205  A    between atoms: _485  and  _486
REMARK  206  A    between atoms: _489  and  _491
REMARK  207  A    between atoms: _491  and  _492
REMARK  208  A    between atoms: _494  and  _496
REMARK  209  A    between atoms: _496  and  _497
REMARK  210  A    between atoms: _496  and  _499
REMARK  211  A    between atoms: _499  and  _500
REMARK  212  A    between atoms: _501  and  _503
REMARK  213  A    between atoms: _503  and  _504
REMARK  214  A    between atoms: _507  and  _509
REMARK  215  A    between atoms: _509  and  _510
REMARK  216  A    between atoms: _509  and  _512
REMARK  217  A    between atoms: _512  and  _513
REMARK  218  A    between atoms: _513  and  _514
REMARK  219  A    between atoms: _514  and  _515
REMARK  220  A    between atoms: _524  and  _526
REMARK  221  A    between atoms: _526  and  _527
REMARK  222  A    between atoms: _526  and  _529
REMARK  223  A    between atoms: _529  and  _530
REMARK  224  A    between atoms: _530  and  _531
REMARK  225  A    between atoms: _531  and  _532
REMARK  226  A    between atoms: _532  and  _533
REMARK  227  A    between atoms: _537  and  _539
REMARK  228  A    between atoms: _539  and  _540
REMARK  229  A    between atoms: _539  and  _542
REMARK  230  A    between atoms: _542  and  _543
REMARK  231  A    between atoms: _548  and  _549
REMARK  232  A    between atoms: _551  and  _553
REMARK  233  A    between atoms: _553  and  _554
REMARK  234  A    between atoms: _556  and  _558
REMARK  235  A    between atoms: _558  and  _559
REMARK  236  A    between atoms: _558  and  _561
REMARK  237  A    between atoms: _561  and  _562
REMARK  238  A    between atoms: _565  and  _567
REMARK  239  A    between atoms: _567  and  _568
REMARK  240  A    between atoms: _567  and  _570
REMARK  241  A    between atoms: _570  and  _571
REMARK  242  A    between atoms: _576  and  _577
REMARK                            x       y       z     vdW  Elec       q    Type
REMARK                         _______ _______ _______ _____ _____    ______ ____
ROOT
ATOM      1  O   HOH     1       8.865  23.476  59.567  0.00  0.00    +0.000 OA
ENDROOT
TORSDOF 0
REMARK  Name = ../refined-set-2016/1z6e/1z6e_pocket.pdb
REMARK  242 active torsions:
REMARK  status: ('A' for Active; 'I' for Inactive)
REMARK    1  A    between atoms: _1  and  _5
REMARK    2  A    between atoms: _5  and  _6
REMARK    3  A    between atoms: _5  and  _8
REMARK    4  A    between atoms: _8  and  _9
REMARK    5  A    between atoms: _12  and  _14
REMARK    6  A    between atoms: _14  and  _15
REMARK    7  A    between atoms: _14  and  _17
REMARK    8  A    between atoms: _20  and  _22
REMARK    9  A    between atoms: _22  and  _23
REMARK   10  A    between atoms: _22  and  _25
REMARK   11  A    between atoms: _25  and  _26
REMARK   12  A    between atoms: _31  and  _33
REMARK   13  A    between atoms: _33  and  _34
REMARK   14  A    between atoms: _33  and  _36
REMARK   15  A    between atoms: _38  and  _40
REMARK   16  A    between atoms: _40  and  _41
REMARK   17  A    between atoms: _40  and  _43
REMARK   18  A    between atoms: _43  and  _44
REMARK   19  A    between atoms: _44  and  _45
REMARK   20  A    between atoms: _50  and  _52
REMARK   21  A    between atoms: _52  and  _53
REMARK   22  A    between atoms: _52  and  _55
REMARK   23  A    between atoms: _55  and  _56
REMARK   24  A    between atoms: _62  and  _64
REMARK   25  A    between atoms: _64  and  _65
REMARK   26  A    between atoms: _64  and  _67
REMARK   27  A    between atoms: _67  and  _68
REMARK   28  A    between atoms: _71  and  _73
REMARK   29  A    between atoms: _73  and  _74
REMARK   30  A    between atoms: _73  and  _76
REMARK   31  A    between atoms: _76  and  _77
REMARK   32  A    between atoms: _77  and  _78
REMARK   33  A    between atoms: _78  and  _79
REMARK   34  A    between atoms: _79  and  _80
REMARK   35  A    between atoms: _84  and  _86
REMARK   36  A    between atoms: _86  and  _87
REMARK   37  A    between atoms: _86  and  _89
REMARK   38  A    between atoms: _89  and  _90
REMARK   39  A    between atoms: _90  and  _91
REMARK   40  A    between atoms: _94  and  _96
REMARK   41  A    between atoms: _96  and  _97
REMARK   42  A    between atoms: _96  and  _99
REMARK   43  A    between atoms: _99  and  _100
REMARK   44  A    between atoms: _103  and  _105
REMARK   45  A    between atoms: _105  and  _106
REMARK   46  A    between atoms: _105  and  _108
REMARK   47  A    between atoms: _108  and  _109
REMARK   48  A    between atoms: _114  and  _115
REMARK   49  A    between atoms: _117  and  _119
REMARK   50  A    between atoms: _119  and  _120
REMARK   51  A    between atoms: _119  and  _122
REMARK   52  A    between atoms: _122  and  _123
REMARK   53  A    between atoms: _126  and  _128
REMARK   54  A    between atoms: _128  and  _129
REMARK   55  A    between atoms: _128  and  _131
REMARK   56  A    between atoms: _131  and  _132
REMARK   57  A    between atoms: _135  and  _137
REMARK   58  A    between atoms: _137  and  _138
REMARK   59  A    between atoms: _137  and  _140
REMARK   60  A    between atoms: _143  and  _145
REMARK   61  A    between atoms: _145  and  _146
REMARK   62  A    between atoms: _148  and  _150
REMARK   63  A    between atoms: _150  and  _151
REMARK   64  A    between atoms: _150  and  _153
REMARK   65  A    between atoms: _153  and  _154
REMARK   66  A    between atoms: _154  and  _155
REMARK   67  A    between atoms: _155  and  _156
REMARK   68  A    between atoms: _165  and  _167
REMARK   69  A    between atoms: _167  and  _168
REMARK   70  A    between atoms: _167  and  _170
REMARK   71  A    between atoms: _170  and  _171
REMARK   72  A    between atoms: _176  and  _178
REMARK   73  A    between atoms: _178  and  _179
REMARK   74  A    between atoms: _178  and  _181
REMARK   75  A    between atoms: _181  and  _182
REMARK   76  A    between atoms: _182  and  _183
REMARK   77  A    between atoms: _186  and  _188
REMARK   78  A    between atoms: _188  and  _189
REMARK   79  A    between atoms: _188  and  _191
REMARK   80  A    between atoms: _191  and  _192
REMARK   81  A    between atoms: _192  and  _193
REMARK   82  A    between atoms: _193  and  _194
REMARK   83  A    between atoms: _194  and  _195
REMARK   84  A    between atoms: _199  and  _201
REMARK   85  A    between atoms: _201  and  _202
REMARK   86  A    between atoms: _204  and  _206
REMARK   87  A    between atoms: _206  and  _207
REMARK   88  A    between atoms: _206  and  _209
REMARK   89  A    between atoms: _209  and  _210
REMARK   90  A    between atoms: _210  and  _211
REMARK   91  A    between atoms: _211  and  _212
REMARK   92  A    between atoms: _221  and  _223
REMARK   93  A    between atoms: _223  and  _224
REMARK   94  A    between atoms: _223  and  _226
REMARK   95  A    between atoms: _226  and  _227
REMARK   96  A    between atoms: _227  and  _228
REMARK   97  A    between atoms: _233  and  _235
REMARK   98  A    between atoms: _235  and  _236
REMARK   99  A    between atoms: _235  and  _238
REMARK  100  A    between atoms: _238  and  _239
REMARK  101  A    between atoms: _242  and  _244
REMARK  102  A    between atoms: _244  and  _245
REMARK  103  A    between atoms: _244  and  _247
REMARK  104  A    between atoms: _250  and  _252
REMARK  105  A    between atoms: _252  and  _253
REMARK  106  A    between atoms: _252  and  _255
REMARK  107  A    between atoms: _255  and  _256
REMARK  108  A    between atoms: _258  and  _260
REMARK  109  A    between atoms: _260  and  _261
REMARK  110  A    between atoms: _260  and  _263
REMARK  111  A    between atoms: _263  and  _264
REMARK  112  A    between atoms: _266  and  _268
REMARK  113  A    between atoms: _268  and  _269
REMARK  114  A    between atoms: _268  and  _271
REMARK  115  A    between atoms: _271  and  _272
REMARK  116  A    between atoms: _278  and  _280
REMARK  117  A    between atoms: _280  and  _281
REMARK  118  A    between atoms: _280  and  _283
REMARK  119  A    between atoms: _283  and  _284
REMARK  120  A    between atoms: _287  and  _289
REMARK  121  A    between atoms: _289  and  _290
REMARK  122  A    between atoms: _289  and  _292
REMARK  123  A    between atoms: _292  and  _293
REMARK  124  A    between atoms: _296  and  _298
REMARK  125  A    between atoms: _298  and  _299
REMARK  126  A    between atoms: _298  and  _301
REMARK  127  A    between atoms: _301  and  _302
REMARK  128  A    between atoms: _305  and  _307
REMARK  129  A    between atoms: _307  and  _308
REMARK  130  A    between atoms: _307  and  _310
REMARK  131  A    between atoms: _310  and  _311
REMARK  132  A    between atoms: _311  and  _312
REMARK  133  A    between atoms: _314  and  _316
REMARK  134  A    between atoms: _316  and  _317
REMARK  135  A    between atoms: _316  and  _319
REMARK  136  A    between atoms: _321  and  _323
REMARK  137  A    between atoms: _323  and  _324
REMARK  138  A    between atoms: _327  and  _329
REMARK  139  A    between atoms: _329  and  _330
REMARK  140  A    between atoms: _332  and  _334
REMARK  141  A    between atoms: _334  and  _335
REMARK  142  A    between atoms: _334  and  _337
REMARK  143  A    between atoms: _337  and  _338
REMARK  144  A    between atoms: _343  and  _344
REMARK  145  A    between atoms: _346  and  _348
REMARK  146  A    between atoms: _348  and  _349
REMARK  147  A    between atoms: _348  and  _351
REMARK  148  A    between atoms: _351  and  _352
REMARK  149  A    between atoms: _352  and  _353
REMARK  150  A    between atoms: _356  and  _358
REMARK  151  A    between atoms: _358  and  _359
REMARK  152  A    between atoms: _358  and  _361
REMARK  153  A    between atoms: _361  and  _362
REMARK  154  A    between atoms: _365  and  _367
REMARK  155  A    between atoms: _367  and  _368
REMARK  156  A    between atoms: _371  and  _373
REMARK  157  A    between atoms: _373  and  _374
REMARK  158  A    between atoms: _373  and  _376
REMARK  159  A    between atoms: _376  and  _377
REMARK  160  A    between atoms: _377  and  _500
REMARK  161  A    between atoms: _378  and  _380
REMARK  162  A    between atoms: _380  and  _381
REMARK  163  A    between atoms: _380  and  _383
REMARK  164  A    between atoms: _383  and  _384
REMARK  165  A    between atoms: _384  and  _385
REMARK  166  A    between atoms: _390  and  _392
REMARK  167  A    between atoms: _392  and  _393
REMARK  168  A    between atoms: _395  and  _397
REMARK  169  A    between atoms: _397  and  _398
REMARK  170  A    between atoms: _397  and  _400
REMARK  171  A    between atoms: _400  and  _401
REMARK  172  A    between atoms: _404  and  _406
REMARK  173  A    between atoms: _406  and  _407
REMARK  174  A    between atoms: _406  and  _409
REMARK  175  A    between atoms: _409  and  _410
REMARK  176  A    between atoms: _412  and  _414
REMARK  177  A    between atoms: _414  and  _415
REMARK  178  A    between atoms: _417  and  _419
REMARK  179  A    between atoms: _419  and  _420
REMARK  180  A    between atoms: _422  and  _424
REMARK  181  A    between atoms: _424  and  _425
REMARK  182  A    between atoms: _424  and  _427
REMARK  183  A    between atoms: _427  and  _428
REMARK  184  A    between atoms: _433  and  _435
REMARK  185  A    between atoms: _435  and  _436
REMARK  186  A    between atoms: _435  and  _438
REMARK  187  A    between atoms: _438  and  _439
REMARK  188  A    between atoms: _442  and  _444
REMARK  189  A    between atoms: _444  and  _445
REMARK  190  A    between atoms: _444  and  _447
REMARK  191  A    between atoms: _450  and  _452
REMARK  192  A    between atoms: _452  and  _453
REMARK  193  A    between atoms: _452  and  _455
REMARK  194  A    between atoms: _455  and  _456
REMARK  195  A    between atoms: _458  and  _460
REMARK  196  A    between atoms: _460  and  _461
REMARK  197  A    between atoms: _460  and  _463
REMARK  198  A    between atoms: _463  and  _464
REMARK  199  A    between atoms: _474  and  _476
REMARK  200  A    between atoms: _476  and  _477
REMARK  201  A    between atoms: _479  and  _481
REMARK  202  A    between atoms: _481  and  _482
REMARK  203  A    between atoms: _481  and  _484
REMARK  204  A    between atoms: _484  and  _485
REMARK  205  A    between atoms: _485  and  _486
REMARK  206  A    between atoms: _489  and  _491
REMARK  207  A    between atoms: _491  and  _492
REMARK  208  A    between atoms: _494  and  _496
REMARK  209  A    between atoms: _496  and  _497
REMARK  210  A    between atoms: _496  and  _499
REMARK  211  A    between atoms: _499  and  _500
REMARK  212  A    between atoms: _501  and  _503
REMARK  213  A    between atoms: _503  and  _504
REMARK  214  A    between atoms: _507  and  _509
REMARK  215  A    between atoms: _509  and  _510
REMARK  216  A    between atoms: _509  and  _512
REMARK  217  A    between atoms: _512  and  _513
REMARK  218  A    between atoms: _513  and  _514
REMARK  219  A    between atoms: _514  and  _515
REMARK  220  A    between atoms: _524  and  _526
REMARK  221  A    between atoms: _526  and  _527
REMARK  222  A    between atoms: _526  and  _529
REMARK  223  A    between atoms: _529  and  _530
REMARK  224  A    between atoms: _530  and  _531
REMARK  225  A    between atoms: _531  and  _532
REMARK  226  A    between atoms: _532  and  _533
REMARK  227  A    between atoms: _537  and  _539
REMARK  228  A    between atoms: _539  and  _540
REMARK  229  A    between atoms: _539  and  _542
REMARK  230  A    between atoms: _542  and  _543
REMARK  231  A    between atoms: _548  and  _549
REMARK  232  A    between atoms: _551  and  _553
REMARK  233  A    between atoms: _553  and  _554
REMARK  234  A    between atoms: _556  and  _558
REMARK  235  A    between atoms: _558  and  _559
REMARK  236  A    between atoms: _558  and  _561
REMARK  237  A    between atoms: _561  and  _562
REMARK  238  A    between atoms: _565  and  _567
REMARK  239  A    between atoms: _567  and  _568
REMARK  240  A    between atoms: _567  and  _570
REMARK  241  A    between atoms: _570  and  _571
REMARK  242  A    between atoms: _576  and  _577
REMARK                            x       y       z     vdW  Elec       q    Type
REMARK                         _______ _______ _______ _____ _____    ______ ____
ROOT
ATOM      1  O   HOH     1      13.250  38.124  62.306  0.00  0.00    +0.000 OA
ENDROOT
TORSDOF 0
REMARK  Name = ../refined-set-2016/1z6e/1z6e_pocket.pdb
REMARK  242 active torsions:
REMARK  status: ('A' for Active; 'I' for Inactive)
REMARK    1  A    between atoms: _1  and  _5
REMARK    2  A    between atoms: _5  and  _6
REMARK    3  A    between atoms: _5  and  _8
REMARK    4  A    between atoms: _8  and  _9
REMARK    5  A    between atoms: _12  and  _14
REMARK    6  A    between atoms: _14  and  _15
REMARK    7  A    between atoms: _14  and  _17
REMARK    8  A    between atoms: _20  and  _22
REMARK    9  A    between atoms: _22  and  _23
REMARK   10  A    between atoms: _22  and  _25
REMARK   11  A    between atoms: _25  and  _26
REMARK   12  A    between atoms: _31  and  _33
REMARK   13  A    between atoms: _33  and  _34
REMARK   14  A    between atoms: _33  and  _36
REMARK   15  A    between atoms: _38  and  _40
REMARK   16  A    between atoms: _40  and  _41
REMARK   17  A    between atoms: _40  and  _43
REMARK   18  A    between atoms: _43  and  _44
REMARK   19  A    between atoms: _44  and  _45
REMARK   20  A    between atoms: _50  and  _52
REMARK   21  A    between atoms: _52  and  _53
REMARK   22  A    between atoms: _52  and  _55
REMARK   23  A    between atoms: _55  and  _56
REMARK   24  A    between atoms: _62  and  _64
REMARK   25  A    between atoms: _64  and  _65
REMARK   26  A    between atoms: _64  and  _67
REMARK   27  A    between atoms: _67  and  _68
REMARK   28  A    between atoms: _71  and  _73
REMARK   29  A    between atoms: _73  and  _74
REMARK   30  A    between atoms: _73  and  _76
REMARK   31  A    between atoms: _76  and  _77
REMARK   32  A    between atoms: _77  and  _78
REMARK   33  A    between atoms: _78  and  _79
REMARK   34  A    between atoms: _79  and  _80
REMARK   35  A    between atoms: _84  and  _86
REMARK   36  A    between atoms: _86  and  _87
REMARK   37  A    between atoms: _86  and  _89
REMARK   38  A    between atoms: _89  and  _90
REMARK   39  A    between atoms: _90  and  _91
REMARK   40  A    between atoms: _94  and  _96
REMARK   41  A    between atoms: _96  and  _97
REMARK   42  A    between atoms: _96  and  _99
REMARK   43  A    between atoms: _99  and  _100
REMARK   44  A    between atoms: _103  and  _105
REMARK   45  A    between atoms: _105  and  _106
REMARK   46  A    between atoms: _105  and  _108
REMARK   47  A    between atoms: _108  and  _109
REMARK   48  A    between atoms: _114  and  _115
REMARK   49  A    between atoms: _117  and  _119
REMARK   50  A    between atoms: _119  and  _120
REMARK   51  A    between atoms: _119  and  _122
REMARK   52  A    between atoms: _122  and  _123
REMARK   53  A    between atoms: _126  and  _128
REMARK   54  A    between atoms: _128  and  _129
REMARK   55  A    between atoms: _128  and  _131
REMARK   56  A    between atoms: _131  and  _132
REMARK   57  A    between atoms: _135  and  _137
REMARK   58  A    between atoms: _137  and  _138
REMARK   59  A    between atoms: _137  and  _140
REMARK   60  A    between atoms: _143  and  _145
REMARK   61  A    between atoms: _145  and  _146
REMARK   62  A    between atoms: _148  and  _150
REMARK   63  A    between atoms: _150  and  _151
REMARK   64  A    between atoms: _150  and  _153
REMARK   65  A    between atoms: _153  and  _154
REMARK   66  A    between atoms: _154  and  _155
REMARK   67  A    between atoms: _155  and  _156
REMARK   68  A    between atoms: _165  and  _167
REMARK   69  A    between atoms: _167  and  _168
REMARK   70  A    between atoms: _167  and  _170
REMARK   71  A    between atoms: _170  and  _171
REMARK   72  A    between atoms: _176  and  _178
REMARK   73  A    between atoms: _178  and  _179
REMARK   74  A    between atoms: _178  and  _181
REMARK   75  A    between atoms: _181  and  _182
REMARK   76  A    between atoms: _182  and  _183
REMARK   77  A    between atoms: _186  and  _188
REMARK   78  A    between atoms: _188  and  _189
REMARK   79  A    between atoms: _188  and  _191
REMARK   80  A    between atoms: _191  and  _192
REMARK   81  A    between atoms: _192  and  _193
REMARK   82  A    between atoms: _193  and  _194
REMARK   83  A    between atoms: _194  and  _195
REMARK   84  A    between atoms: _199  and  _201
REMARK   85  A    between atoms: _201  and  _202
REMARK   86  A    between atoms: _204  and  _206
REMARK   87  A    between atoms: _206  and  _207
REMARK   88  A    between atoms: _206  and  _209
REMARK   89  A    between atoms: _209  and  _210
REMARK   90  A    between atoms: _210  and  _211
REMARK   91  A    between atoms: _211  and  _212
REMARK   92  A    between atoms: _221  and  _223
REMARK   93  A    between atoms: _223  and  _224
REMARK   94  A    between atoms: _223  and  _226
REMARK   95  A    between atoms: _226  and  _227
REMARK   96  A    between atoms: _227  and  _228
REMARK   97  A    between atoms: _233  and  _235
REMARK   98  A    between atoms: _235  and  _236
REMARK   99  A    between atoms: _235  and  _238
REMARK  100  A    between atoms: _238  and  _239
REMARK  101  A    between atoms: _242  and  _244
REMARK  102  A    between atoms: _244  and  _245
REMARK  103  A    between atoms: _244  and  _247
REMARK  104  A    between atoms: _250  and  _252
REMARK  105  A    between atoms: _252  and  _253
REMARK  106  A    between atoms: _252  and  _255
REMARK  107  A    between atoms: _255  and  _256
REMARK  108  A    between atoms: _258  and  _260
REMARK  109  A    between atoms: _260  and  _261
REMARK  110  A    between atoms: _260  and  _263
REMARK  111  A    between atoms: _263  and  _264
REMARK  112  A    between atoms: _266  and  _268
REMARK  113  A    between atoms: _268  and  _269
REMARK  114  A    between atoms: _268  and  _271
REMARK  115  A    between atoms: _271  and  _272
REMARK  116  A    between atoms: _278  and  _280
REMARK  117  A    between atoms: _280  and  _281
REMARK  118  A    between atoms: _280  and  _283
REMARK  119  A    between atoms: _283  and  _284
REMARK  120  A    between atoms: _287  and  _289
REMARK  121  A    between atoms: _289  and  _290
REMARK  122  A    between atoms: _289  and  _292
REMARK  123  A    between atoms: _292  and  _293
REMARK  124  A    between atoms: _296  and  _298
REMARK  125  A    between atoms: _298  and  _299
REMARK  126  A    between atoms: _298  and  _301
REMARK  127  A    between atoms: _301  and  _302
REMARK  128  A    between atoms: _305  and  _307
REMARK  129  A    between atoms: _307  and  _308
REMARK  130  A    between atoms: _307  and  _310
REMARK  131  A    between atoms: _310  and  _311
REMARK  132  A    between atoms: _311  and  _312
REMARK  133  A    between atoms: _314  and  _316
REMARK  134  A    between atoms: _316  and  _317
REMARK  135  A    between atoms: _316  and  _319
REMARK  136  A    between atoms: _321  and  _323
REMARK  137  A    between atoms: _323  and  _324
REMARK  138  A    between atoms: _327  and  _329
REMARK  139  A    between atoms: _329  and  _330
REMARK  140  A    between atoms: _332  and  _334
REMARK  141  A    between atoms: _334  and  _335
REMARK  142  A    between atoms: _334  and  _337
REMARK  143  A    between atoms: _337  and  _338
REMARK  144  A    between atoms: _343  and  _344
REMARK  145  A    between atoms: _346  and  _348
REMARK  146  A    between atoms: _348  and  _349
REMARK  147  A    between atoms: _348  and  _351
REMARK  148  A    between atoms: _351  and  _352
REMARK  149  A    between atoms: _352  and  _353
REMARK  150  A    between atoms: _356  and  _358
REMARK  151  A    between atoms: _358  and  _359
REMARK  152  A    between atoms: _358  and  _361
REMARK  153  A    between atoms: _361  and  _362
REMARK  154  A    between atoms: _365  and  _367
REMARK  155  A    between atoms: _367  and  _368
REMARK  156  A    between atoms: _371  and  _373
REMARK  157  A    between atoms: _373  and  _374
REMARK  158  A    between atoms: _373  and  _376
REMARK  159  A    between atoms: _376  and  _377
REMARK  160  A    between atoms: _377  and  _500
REMARK  161  A    between atoms: _378  and  _380
REMARK  162  A    between atoms: _380  and  _381
REMARK  163  A    between atoms: _380  and  _383
REMARK  164  A    between atoms: _383  and  _384
REMARK  165  A    between atoms: _384  and  _385
REMARK  166  A    between atoms: _390  and  _392
REMARK  167  A    between atoms: _392  and  _393
REMARK  168  A    between atoms: _395  and  _397
REMARK  169  A    between atoms: _397  and  _398
REMARK  170  A    between atoms: _397  and  _400
REMARK  171  A    between atoms: _400  and  _401
REMARK  172  A    between atoms: _404  and  _406
REMARK  173  A    between atoms: _406  and  _407
REMARK  174  A    between atoms: _406  and  _409
REMARK  175  A    between atoms: _409  and  _410
REMARK  176  A    between atoms: _412  and  _414
REMARK  177  A    between atoms: _414  and  _415
REMARK  178  A    between atoms: _417  and  _419
REMARK  179  A    between atoms: _419  and  _420
REMARK  180  A    between atoms: _422  and  _424
REMARK  181  A    between atoms: _424  and  _425
REMARK  182  A    between atoms: _424  and  _427
REMARK  183  A    between atoms: _427  and  _428
REMARK  184  A    between atoms: _433  and  _435
REMARK  185  A    between atoms: _435  and  _436
REMARK  186  A    between atoms: _435  and  _438
REMARK  187  A    between atoms: _438  and  _439
REMARK  188  A    between atoms: _442  and  _444
REMARK  189  A    between atoms: _444  and  _445
REMARK  190  A    between atoms: _444  and  _447
REMARK  191  A    between atoms: _450  and  _452
REMARK  192  A    between atoms: _452  and  _453
REMARK  193  A    between atoms: _452  and  _455
REMARK  194  A    between atoms: _455  and  _456
REMARK  195  A    between atoms: _458  and  _460
REMARK  196  A    between atoms: _460  and  _461
REMARK  197  A    between atoms: _460  and  _463
REMARK  198  A    between atoms: _463  and  _464
REMARK  199  A    between atoms: _474  and  _476
REMARK  200  A    between atoms: _476  and  _477
REMARK  201  A    between atoms: _479  and  _481
REMARK  202  A    between atoms: _481  and  _482
REMARK  203  A    between atoms: _481  and  _484
REMARK  204  A    between atoms: _484  and  _485
REMARK  205  A    between atoms: _485  and  _486
REMARK  206  A    between atoms: _489  and  _491
REMARK  207  A    between atoms: _491  and  _492
REMARK  208  A    between atoms: _494  and  _496
REMARK  209  A    between atoms: _496  and  _497
REMARK  210  A    between atoms: _496  and  _499
REMARK  211  A    between atoms: _499  and  _500
REMARK  212  A    between atoms: _501  and  _503
REMARK  213  A    between atoms: _503  and  _504
REMARK  214  A    between atoms: _507  and  _509
REMARK  215  A    between atoms: _509  and  _510
REMARK  216  A    between atoms: _509  and  _512
REMARK  217  A    between atoms: _512  and  _513
REMARK  218  A    between atoms: _513  and  _514
REMARK  219  A    between atoms: _514  and  _515
REMARK  220  A    between atoms: _524  and  _526
REMARK  221  A    between atoms: _526  and  _527
REMARK  222  A    between atoms: _526  and  _529
REMARK  223  A    between atoms: _529  and  _530
REMARK  224  A    between atoms: _530  and  _531
REMARK  225  A    between atoms: _531  and  _532
REMARK  226  A    between atoms: _532  and  _533
REMARK  227  A    between atoms: _537  and  _539
REMARK  228  A    between atoms: _539  and  _540
REMARK  229  A    between atoms: _539  and  _542
REMARK  230  A    between atoms: _542  and  _543
REMARK  231  A    between atoms: _548  and  _549
REMARK  232  A    between atoms: _551  and  _553
REMARK  233  A    between atoms: _553  and  _554
REMARK  234  A    between atoms: _556  and  _558
REMARK  235  A    between atoms: _558  and  _559
REMARK  236  A    between atoms: _558  and  _561
REMARK  237  A    between atoms: _561  and  _562
REMARK  238  A    between atoms: _565  and  _567
REMARK  239  A    between atoms: _567  and  _568
REMARK  240  A    between atoms: _567  and  _570
REMARK  241  A    between atoms: _570  and  _571
REMARK  242  A    between atoms: _576  and  _577
REMARK                            x       y       z     vdW  Elec       q    Type
REMARK                         _______ _______ _______ _____ _____    ______ ____
ROOT
ATOM      1  O   HOH     1       9.194  38.478  63.224  0.00  0.00    +0.000 OA
ENDROOT
TORSDOF 0
REMARK  Name = ../refined-set-2016/1z6e/1z6e_pocket.pdb
REMARK  242 active torsions:
REMARK  status: ('A' for Active; 'I' for Inactive)
REMARK    1  A    between atoms: _1  and  _5
REMARK    2  A    between atoms: _5  and  _6
REMARK    3  A    between atoms: _5  and  _8
REMARK    4  A    between atoms: _8  and  _9
REMARK    5  A    between atoms: _12  and  _14
REMARK    6  A    between atoms: _14  and  _15
REMARK    7  A    between atoms: _14  and  _17
REMARK    8  A    between atoms: _20  and  _22
REMARK    9  A    between atoms: _22  and  _23
REMARK   10  A    between atoms: _22  and  _25
REMARK   11  A    between atoms: _25  and  _26
REMARK   12  A    between atoms: _31  and  _33
REMARK   13  A    between atoms: _33  and  _34
REMARK   14  A    between atoms: _33  and  _36
REMARK   15  A    between atoms: _38  and  _40
REMARK   16  A    between atoms: _40  and  _41
REMARK   17  A    between atoms: _40  and  _43
REMARK   18  A    between atoms: _43  and  _44
REMARK   19  A    between atoms: _44  and  _45
REMARK   20  A    between atoms: _50  and  _52
REMARK   21  A    between atoms: _52  and  _53
REMARK   22  A    between atoms: _52  and  _55
REMARK   23  A    between atoms: _55  and  _56
REMARK   24  A    between atoms: _62  and  _64
REMARK   25  A    between atoms: _64  and  _65
REMARK   26  A    between atoms: _64  and  _67
REMARK   27  A    between atoms: _67  and  _68
REMARK   28  A    between atoms: _71  and  _73
REMARK   29  A    between atoms: _73  and  _74
REMARK   30  A    between atoms: _73  and  _76
REMARK   31  A    between atoms: _76  and  _77
REMARK   32  A    between atoms: _77  and  _78
REMARK   33  A    between atoms: _78  and  _79
REMARK   34  A    between atoms: _79  and  _80
REMARK   35  A    between atoms: _84  and  _86
REMARK   36  A    between atoms: _86  and  _87
REMARK   37  A    between atoms: _86  and  _89
REMARK   38  A    between atoms: _89  and  _90
REMARK   39  A    between atoms: _90  and  _91
REMARK   40  A    between atoms: _94  and  _96
REMARK   41  A    between atoms: _96  and  _97
REMARK   42  A    between atoms: _96  and  _99
REMARK   43  A    between atoms: _99  and  _100
REMARK   44  A    between atoms: _103  and  _105
REMARK   45  A    between atoms: _105  and  _106
REMARK   46  A    between atoms: _105  and  _108
REMARK   47  A    between atoms: _108  and  _109
REMARK   48  A    between atoms: _114  and  _115
REMARK   49  A    between atoms: _117  and  _119
REMARK   50  A    between atoms: _119  and  _120
REMARK   51  A    between atoms: _119  and  _122
REMARK   52  A    between atoms: _122  and  _123
REMARK   53  A    between atoms: _126  and  _128
REMARK   54  A    between atoms: _128  and  _129
REMARK   55  A    between atoms: _128  and  _131
REMARK   56  A    between atoms: _131  and  _132
REMARK   57  A    between atoms: _135  and  _137
REMARK   58  A    between atoms: _137  and  _138
REMARK   59  A    between atoms: _137  and  _140
REMARK   60  A    between atoms: _143  and  _145
REMARK   61  A    between atoms: _145  and  _146
REMARK   62  A    between atoms: _148  and  _150
REMARK   63  A    between atoms: _150  and  _151
REMARK   64  A    between atoms: _150  and  _153
REMARK   65  A    between atoms: _153  and  _154
REMARK   66  A    between atoms: _154  and  _155
REMARK   67  A    between atoms: _155  and  _156
REMARK   68  A    between atoms: _165  and  _167
REMARK   69  A    between atoms: _167  and  _168
REMARK   70  A    between atoms: _167  and  _170
REMARK   71  A    between atoms: _170  and  _171
REMARK   72  A    between atoms: _176  and  _178
REMARK   73  A    between atoms: _178  and  _179
REMARK   74  A    between atoms: _178  and  _181
REMARK   75  A    between atoms: _181  and  _182
REMARK   76  A    between atoms: _182  and  _183
REMARK   77  A    between atoms: _186  and  _188
REMARK   78  A    between atoms: _188  and  _189
REMARK   79  A    between atoms: _188  and  _191
REMARK   80  A    between atoms: _191  and  _192
REMARK   81  A    between atoms: _192  and  _193
REMARK   82  A    between atoms: _193  and  _194
REMARK   83  A    between atoms: _194  and  _195
REMARK   84  A    between atoms: _199  and  _201
REMARK   85  A    between atoms: _201  and  _202
REMARK   86  A    between atoms: _204  and  _206
REMARK   87  A    between atoms: _206  and  _207
REMARK   88  A    between atoms: _206  and  _209
REMARK   89  A    between atoms: _209  and  _210
REMARK   90  A    between atoms: _210  and  _211
REMARK   91  A    between atoms: _211  and  _212
REMARK   92  A    between atoms: _221  and  _223
REMARK   93  A    between atoms: _223  and  _224
REMARK   94  A    between atoms: _223  and  _226
REMARK   95  A    between atoms: _226  and  _227
REMARK   96  A    between atoms: _227  and  _228
REMARK   97  A    between atoms: _233  and  _235
REMARK   98  A    between atoms: _235  and  _236
REMARK   99  A    between atoms: _235  and  _238
REMARK  100  A    between atoms: _238  and  _239
REMARK  101  A    between atoms: _242  and  _244
REMARK  102  A    between atoms: _244  and  _245
REMARK  103  A    between atoms: _244  and  _247
REMARK  104  A    between atoms: _250  and  _252
REMARK  105  A    between atoms: _252  and  _253
REMARK  106  A    between atoms: _252  and  _255
REMARK  107  A    between atoms: _255  and  _256
REMARK  108  A    between atoms: _258  and  _260
REMARK  109  A    between atoms: _260  and  _261
REMARK  110  A    between atoms: _260  and  _263
REMARK  111  A    between atoms: _263  and  _264
REMARK  112  A    between atoms: _266  and  _268
REMARK  113  A    between atoms: _268  and  _269
REMARK  114  A    between atoms: _268  and  _271
REMARK  115  A    between atoms: _271  and  _272
REMARK  116  A    between atoms: _278  and  _280
REMARK  117  A    between atoms: _280  and  _281
REMARK  118  A    between atoms: _280  and  _283
REMARK  119  A    between atoms: _283  and  _284
REMARK  120  A    between atoms: _287  and  _289
REMARK  121  A    between atoms: _289  and  _290
REMARK  122  A    between atoms: _289  and  _292
REMARK  123  A    between atoms: _292  and  _293
REMARK  124  A    between atoms: _296  and  _298
REMARK  125  A    between atoms: _298  and  _299
REMARK  126  A    between atoms: _298  and  _301
REMARK  127  A    between atoms: _301  and  _302
REMARK  128  A    between atoms: _305  and  _307
REMARK  129  A    between atoms: _307  and  _308
REMARK  130  A    between atoms: _307  and  _310
REMARK  131  A    between atoms: _310  and  _311
REMARK  132  A    between atoms: _311  and  _312
REMARK  133  A    between atoms: _314  and  _316
REMARK  134  A    between atoms: _316  and  _317
REMARK  135  A    between atoms: _316  and  _319
REMARK  136  A    between atoms: _321  and  _323
REMARK  137  A    between atoms: _323  and  _324
REMARK  138  A    between atoms: _327  and  _329
REMARK  139  A    between atoms: _329  and  _330
REMARK  140  A    between atoms: _332  and  _334
REMARK  141  A    between atoms: _334  and  _335
REMARK  142  A    between atoms: _334  and  _337
REMARK  143  A    between atoms: _337  and  _338
REMARK  144  A    between atoms: _343  and  _344
REMARK  145  A    between atoms: _346  and  _348
REMARK  146  A    between atoms: _348  and  _349
REMARK  147  A    between atoms: _348  and  _351
REMARK  148  A    between atoms: _351  and  _352
REMARK  149  A    between atoms: _352  and  _353
REMARK  150  A    between atoms: _356  and  _358
REMARK  151  A    between atoms: _358  and  _359
REMARK  152  A    between atoms: _358  and  _361
REMARK  153  A    between atoms: _361  and  _362
REMARK  154  A    between atoms: _365  and  _367
REMARK  155  A    between atoms: _367  and  _368
REMARK  156  A    between atoms: _371  and  _373
REMARK  157  A    between atoms: _373  and  _374
REMARK  158  A    between atoms: _373  and  _376
REMARK  159  A    between atoms: _376  and  _377
REMARK  160  A    between atoms: _377  and  _500
REMARK  161  A    between atoms: _378  and  _380
REMARK  162  A    between atoms: _380  and  _381
REMARK  163  A    between atoms: _380  and  _383
REMARK  164  A    between atoms: _383  and  _384
REMARK  165  A    between atoms: _384  and  _385
REMARK  166  A    between atoms: _390  and  _392
REMARK  167  A    between atoms: _392  and  _393
REMARK  168  A    between atoms: _395  and  _397
REMARK  169  A    between atoms: _397  and  _398
REMARK  170  A    between atoms: _397  and  _400
REMARK  171  A    between atoms: _400  and  _401
REMARK  172  A    between atoms: _404  and  _406
REMARK  173  A    between atoms: _406  and  _407
REMARK  174  A    between atoms: _406  and  _409
REMARK  175  A    between atoms: _409  and  _410
REMARK  176  A    between atoms: _412  and  _414
REMARK  177  A    between atoms: _414  and  _415
REMARK  178  A    between atoms: _417  and  _419
REMARK  179  A    between atoms: _419  and  _420
REMARK  180  A    between atoms: _422  and  _424
REMARK  181  A    between atoms: _424  and  _425
REMARK  182  A    between atoms: _424  and  _427
REMARK  183  A    between atoms: _427  and  _428
REMARK  184  A    between atoms: _433  and  _435
REMARK  185  A    between atoms: _435  and  _436
REMARK  186  A    between atoms: _435  and  _438
REMARK  187  A    between atoms: _438  and  _439
REMARK  188  A    between atoms: _442  and  _444
REMARK  189  A    between atoms: _444  and  _445
REMARK  190  A    between atoms: _444  and  _447
REMARK  191  A    between atoms: _450  and  _452
REMARK  192  A    between atoms: _452  and  _453
REMARK  193  A    between atoms: _452  and  _455
REMARK  194  A    between atoms: _455  and  _456
REMARK  195  A    between atoms: _458  and  _460
REMARK  196  A    between atoms: _460  and  _461
REMARK  197  A    between atoms: _460  and  _463
REMARK  198  A    between atoms: _463  and  _464
REMARK  199  A    between atoms: _474  and  _476
REMARK  200  A    between atoms: _476  and  _477
REMARK  201  A    between atoms: _479  and  _481
REMARK  202  A    between atoms: _481  and  _482
REMARK  203  A    between atoms: _481  and  _484
REMARK  204  A    between atoms: _484  and  _485
REMARK  205  A    between atoms: _485  and  _486
REMARK  206  A    between atoms: _489  and  _491
REMARK  207  A    between atoms: _491  and  _492
REMARK  208  A    between atoms: _494  and  _496
REMARK  209  A    between atoms: _496  and  _497
REMARK  210  A    between atoms: _496  and  _499
REMARK  211  A    between atoms: _499  and  _500
REMARK  212  A    between atoms: _501  and  _503
REMARK  213  A    between atoms: _503  and  _504
REMARK  214  A    between atoms: _507  and  _509
REMARK  215  A    between atoms: _509  and  _510
REMARK  216  A    between atoms: _509  and  _512
REMARK  217  A    between atoms: _512  and  _513
REMARK  218  A    between atoms: _513  and  _514
REMARK  219  A    between atoms: _514  and  _515
REMARK  220  A    between atoms: _524  and  _526
REMARK  221  A    between atoms: _526  and  _527
REMARK  222  A    between atoms: _526  and  _529
REMARK  223  A    between atoms: _529  and  _530
REMARK  224  A    between atoms: _530  and  _531
REMARK  225  A    between atoms: _531  and  _532
REMARK  226  A    between atoms: _532  and  _533
REMARK  227  A    between atoms: _537  and  _539
REMARK  228  A    between atoms: _539  and  _540
REMARK  229  A    between atoms: _539  and  _542
REMARK  230  A    between atoms: _542  and  _543
REMARK  231  A    between atoms: _548  and  _549
REMARK  232  A    between atoms: _551  and  _553
REMARK  233  A    between atoms: _553  and  _554
REMARK  234  A    between atoms: _556  and  _558
REMARK  235  A    between atoms: _558  and  _559
REMARK  236  A    between atoms: _558  and  _561
REMARK  237  A    between atoms: _561  and  _562
REMARK  238  A    between atoms: _565  and  _567
REMARK  239  A    between atoms: _567  and  _568
REMARK  240  A    between atoms: _567  and  _570
REMARK  241  A    between atoms: _570  and  _571
REMARK  242  A    between atoms: _576  and  _577
REMARK                            x       y       z     vdW  Elec       q    Type
REMARK                         _______ _______ _______ _____ _____    ______ ____
ROOT
ATOM      1  O   HOH     1       8.152  26.843  60.158  0.00  0.00    +0.000 OA
ENDROOT
TORSDOF 0
REMARK  Name = ../refined-set-2016/1z6e/1z6e_pocket.pdb
REMARK  242 active torsions:
REMARK  status: ('A' for Active; 'I' for Inactive)
REMARK    1  A    between atoms: _1  and  _5
REMARK    2  A    between atoms: _5  and  _6
REMARK    3  A    between atoms: _5  and  _8
REMARK    4  A    between atoms: _8  and  _9
REMARK    5  A    between atoms: _12  and  _14
REMARK    6  A    between atoms: _14  and  _15
REMARK    7  A    between atoms: _14  and  _17
REMARK    8  A    between atoms: _20  and  _22
REMARK    9  A    between atoms: _22  and  _23
REMARK   10  A    between atoms: _22  and  _25
REMARK   11  A    between atoms: _25  and  _26
REMARK   12  A    between atoms: _31  and  _33
REMARK   13  A    between atoms: _33  and  _34
REMARK   14  A    between atoms: _33  and  _36
REMARK   15  A    between atoms: _38  and  _40
REMARK   16  A    between atoms: _40  and  _41
REMARK   17  A    between atoms: _40  and  _43
REMARK   18  A    between atoms: _43  and  _44
REMARK   19  A    between atoms: _44  and  _45
REMARK   20  A    between atoms: _50  and  _52
REMARK   21  A    between atoms: _52  and  _53
REMARK   22  A    between atoms: _52  and  _55
REMARK   23  A    between atoms: _55  and  _56
REMARK   24  A    between atoms: _62  and  _64
REMARK   25  A    between atoms: _64  and  _65
REMARK   26  A    between atoms: _64  and  _67
REMARK   27  A    between atoms: _67  and  _68
REMARK   28  A    between atoms: _71  and  _73
REMARK   29  A    between atoms: _73  and  _74
REMARK   30  A    between atoms: _73  and  _76
REMARK   31  A    between atoms: _76  and  _77
REMARK   32  A    between atoms: _77  and  _78
REMARK   33  A    between atoms: _78  and  _79
REMARK   34  A    between atoms: _79  and  _80
REMARK   35  A    between atoms: _84  and  _86
REMARK   36  A    between atoms: _86  and  _87
REMARK   37  A    between atoms: _86  and  _89
REMARK   38  A    between atoms: _89  and  _90
REMARK   39  A    between atoms: _90  and  _91
REMARK   40  A    between atoms: _94  and  _96
REMARK   41  A    between atoms: _96  and  _97
REMARK   42  A    between atoms: _96  and  _99
REMARK   43  A    between atoms: _99  and  _100
REMARK   44  A    between atoms: _103  and  _105
REMARK   45  A    between atoms: _105  and  _106
REMARK   46  A    between atoms: _105  and  _108
REMARK   47  A    between atoms: _108  and  _109
REMARK   48  A    between atoms: _114  and  _115
REMARK   49  A    between atoms: _117  and  _119
REMARK   50  A    between atoms: _119  and  _120
REMARK   51  A    between atoms: _119  and  _122
REMARK   52  A    between atoms: _122  and  _123
REMARK   53  A    between atoms: _126  and  _128
REMARK   54  A    between atoms: _128  and  _129
REMARK   55  A    between atoms: _128  and  _131
REMARK   56  A    between atoms: _131  and  _132
REMARK   57  A    between atoms: _135  and  _137
REMARK   58  A    between atoms: _137  and  _138
REMARK   59  A    between atoms: _137  and  _140
REMARK   60  A    between atoms: _143  and  _145
REMARK   61  A    between atoms: _145  and  _146
REMARK   62  A    between atoms: _148  and  _150
REMARK   63  A    between atoms: _150  and  _151
REMARK   64  A    between atoms: _150  and  _153
REMARK   65  A    between atoms: _153  and  _154
REMARK   66  A    between atoms: _154  and  _155
REMARK   67  A    between atoms: _155  and  _156
REMARK   68  A    between atoms: _165  and  _167
REMARK   69  A    between atoms: _167  and  _168
REMARK   70  A    between atoms: _167  and  _170
REMARK   71  A    between atoms: _170  and  _171
REMARK   72  A    between atoms: _176  and  _178
REMARK   73  A    between atoms: _178  and  _179
REMARK   74  A    between atoms: _178  and  _181
REMARK   75  A    between atoms: _181  and  _182
REMARK   76  A    between atoms: _182  and  _183
REMARK   77  A    between atoms: _186  and  _188
REMARK   78  A    between atoms: _188  and  _189
REMARK   79  A    between atoms: _188  and  _191
REMARK   80  A    between atoms: _191  and  _192
REMARK   81  A    between atoms: _192  and  _193
REMARK   82  A    between atoms: _193  and  _194
REMARK   83  A    between atoms: _194  and  _195
REMARK   84  A    between atoms: _199  and  _201
REMARK   85  A    between atoms: _201  and  _202
REMARK   86  A    between atoms: _204  and  _206
REMARK   87  A    between atoms: _206  and  _207
REMARK   88  A    between atoms: _206  and  _209
REMARK   89  A    between atoms: _209  and  _210
REMARK   90  A    between atoms: _210  and  _211
REMARK   91  A    between atoms: _211  and  _212
REMARK   92  A    between atoms: _221  and  _223
REMARK   93  A    between atoms: _223  and  _224
REMARK   94  A    between atoms: _223  and  _226
REMARK   95  A    between atoms: _226  and  _227
REMARK   96  A    between atoms: _227  and  _228
REMARK   97  A    between atoms: _233  and  _235
REMARK   98  A    between atoms: _235  and  _236
REMARK   99  A    between atoms: _235  and  _238
REMARK  100  A    between atoms: _238  and  _239
REMARK  101  A    between atoms: _242  and  _244
REMARK  102  A    between atoms: _244  and  _245
REMARK  103  A    between atoms: _244  and  _247
REMARK  104  A    between atoms: _250  and  _252
REMARK  105  A    between atoms: _252  and  _253
REMARK  106  A    between atoms: _252  and  _255
REMARK  107  A    between atoms: _255  and  _256
REMARK  108  A    between atoms: _258  and  _260
REMARK  109  A    between atoms: _260  and  _261
REMARK  110  A    between atoms: _260  and  _263
REMARK  111  A    between atoms: _263  and  _264
REMARK  112  A    between atoms: _266  and  _268
REMARK  113  A    between atoms: _268  and  _269
REMARK  114  A    between atoms: _268  and  _271
REMARK  115  A    between atoms: _271  and  _272
REMARK  116  A    between atoms: _278  and  _280
REMARK  117  A    between atoms: _280  and  _281
REMARK  118  A    between atoms: _280  and  _283
REMARK  119  A    between atoms: _283  and  _284
REMARK  120  A    between atoms: _287  and  _289
REMARK  121  A    between atoms: _289  and  _290
REMARK  122  A    between atoms: _289  and  _292
REMARK  123  A    between atoms: _292  and  _293
REMARK  124  A    between atoms: _296  and  _298
REMARK  125  A    between atoms: _298  and  _299
REMARK  126  A    between atoms: _298  and  _301
REMARK  127  A    between atoms: _301  and  _302
REMARK  128  A    between atoms: _305  and  _307
REMARK  129  A    between atoms: _307  and  _308
REMARK  130  A    between atoms: _307  and  _310
REMARK  131  A    between atoms: _310  and  _311
REMARK  132  A    between atoms: _311  and  _312
REMARK  133  A    between atoms: _314  and  _316
REMARK  134  A    between atoms: _316  and  _317
REMARK  135  A    between atoms: _316  and  _319
REMARK  136  A    between atoms: _321  and  _323
REMARK  137  A    between atoms: _323  and  _324
REMARK  138  A    between atoms: _327  and  _329
REMARK  139  A    between atoms: _329  and  _330
REMARK  140  A    between atoms: _332  and  _334
REMARK  141  A    between atoms: _334  and  _335
REMARK  142  A    between atoms: _334  and  _337
REMARK  143  A    between atoms: _337  and  _338
REMARK  144  A    between atoms: _343  and  _344
REMARK  145  A    between atoms: _346  and  _348
REMARK  146  A    between atoms: _348  and  _349
REMARK  147  A    between atoms: _348  and  _351
REMARK  148  A    between atoms: _351  and  _352
REMARK  149  A    between atoms: _352  and  _353
REMARK  150  A    between atoms: _356  and  _358
REMARK  151  A    between atoms: _358  and  _359
REMARK  152  A    between atoms: _358  and  _361
REMARK  153  A    between atoms: _361  and  _362
REMARK  154  A    between atoms: _365  and  _367
REMARK  155  A    between atoms: _367  and  _368
REMARK  156  A    between atoms: _371  and  _373
REMARK  157  A    between atoms: _373  and  _374
REMARK  158  A    between atoms: _373  and  _376
REMARK  159  A    between atoms: _376  and  _377
REMARK  160  A    between atoms: _377  and  _500
REMARK  161  A    between atoms: _378  and  _380
REMARK  162  A    between atoms: _380  and  _381
REMARK  163  A    between atoms: _380  and  _383
REMARK  164  A    between atoms: _383  and  _384
REMARK  165  A    between atoms: _384  and  _385
REMARK  166  A    between atoms: _390  and  _392
REMARK  167  A    between atoms: _392  and  _393
REMARK  168  A    between atoms: _395  and  _397
REMARK  169  A    between atoms: _397  and  _398
REMARK  170  A    between atoms: _397  and  _400
REMARK  171  A    between atoms: _400  and  _401
REMARK  172  A    between atoms: _404  and  _406
REMARK  173  A    between atoms: _406  and  _407
REMARK  174  A    between atoms: _406  and  _409
REMARK  175  A    between atoms: _409  and  _410
REMARK  176  A    between atoms: _412  and  _414
REMARK  177  A    between atoms: _414  and  _415
REMARK  178  A    between atoms: _417  and  _419
REMARK  179  A    between atoms: _419  and  _420
REMARK  180  A    between atoms: _422  and  _424
REMARK  181  A    between atoms: _424  and  _425
REMARK  182  A    between atoms: _424  and  _427
REMARK  183  A    between atoms: _427  and  _428
REMARK  184  A    between atoms: _433  and  _435
REMARK  185  A    between atoms: _435  and  _436
REMARK  186  A    between atoms: _435  and  _438
REMARK  187  A    between atoms: _438  and  _439
REMARK  188  A    between atoms: _442  and  _444
REMARK  189  A    between atoms: _444  and  _445
REMARK  190  A    between atoms: _444  and  _447
REMARK  191  A    between atoms: _450  and  _452
REMARK  192  A    between atoms: _452  and  _453
REMARK  193  A    between atoms: _452  and  _455
REMARK  194  A    between atoms: _455  and  _456
REMARK  195  A    between atoms: _458  and  _460
REMARK  196  A    between atoms: _460  and  _461
REMARK  197  A    between atoms: _460  and  _463
REMARK  198  A    between atoms: _463  and  _464
REMARK  199  A    between atoms: _474  and  _476
REMARK  200  A    between atoms: _476  and  _477
REMARK  201  A    between atoms: _479  and  _481
REMARK  202  A    between atoms: _481  and  _482
REMARK  203  A    between atoms: _481  and  _484
REMARK  204  A    between atoms: _484  and  _485
REMARK  205  A    between atoms: _485  and  _486
REMARK  206  A    between atoms: _489  and  _491
REMARK  207  A    between atoms: _491  and  _492
REMARK  208  A    between atoms: _494  and  _496
REMARK  209  A    between atoms: _496  and  _497
REMARK  210  A    between atoms: _496  and  _499
REMARK  211  A    between atoms: _499  and  _500
REMARK  212  A    between atoms: _501  and  _503
REMARK  213  A    between atoms: _503  and  _504
REMARK  214  A    between atoms: _507  and  _509
REMARK  215  A    between atoms: _509  and  _510
REMARK  216  A    between atoms: _509  and  _512
REMARK  217  A    between atoms: _512  and  _513
REMARK  218  A    between atoms: _513  and  _514
REMARK  219  A    between atoms: _514  and  _515
REMARK  220  A    between atoms: _524  and  _526
REMARK  221  A    between atoms: _526  and  _527
REMARK  222  A    between atoms: _526  and  _529
REMARK  223  A    between atoms: _529  and  _530
REMARK  224  A    between atoms: _530  and  _531
REMARK  225  A    between atoms: _531  and  _532
REMARK  226  A    between atoms: _532  and  _533
REMARK  227  A    between atoms: _537  and  _539
REMARK  228  A    between atoms: _539  and  _540
REMARK  229  A    between atoms: _539  and  _542
REMARK  230  A    between atoms: _542  and  _543
REMARK  231  A    between atoms: _548  and  _549
REMARK  232  A    between atoms: _551  and  _553
REMARK  233  A    between atoms: _553  and  _554
REMARK  234  A    between atoms: _556  and  _558
REMARK  235  A    between atoms: _558  and  _559
REMARK  236  A    between atoms: _558  and  _561
REMARK  237  A    between atoms: _561  and  _562
REMARK  238  A    between atoms: _565  and  _567
REMARK  239  A    between atoms: _567  and  _568
REMARK  240  A    between atoms: _567  and  _570
REMARK  241  A    between atoms: _570  and  _571
REMARK  242  A    between atoms: _576  and  _577
REMARK                            x       y       z     vdW  Elec       q    Type
REMARK                         _______ _______ _______ _____ _____    ______ ____
ROOT
ATOM      1  O   HOH     1       7.000  32.907  48.725  0.00  0.00    +0.000 OA
ENDROOT
TORSDOF 0
REMARK  Name = ../refined-set-2016/1z6e/1z6e_pocket.pdb
REMARK  242 active torsions:
REMARK  status: ('A' for Active; 'I' for Inactive)
REMARK    1  A    between atoms: _1  and  _5
REMARK    2  A    between atoms: _5  and  _6
REMARK    3  A    between atoms: _5  and  _8
REMARK    4  A    between atoms: _8  and  _9
REMARK    5  A    between atoms: _12  and  _14
REMARK    6  A    between atoms: _14  and  _15
REMARK    7  A    between atoms: _14  and  _17
REMARK    8  A    between atoms: _20  and  _22
REMARK    9  A    between atoms: _22  and  _23
REMARK   10  A    between atoms: _22  and  _25
REMARK   11  A    between atoms: _25  and  _26
REMARK   12  A    between atoms: _31  and  _33
REMARK   13  A    between atoms: _33  and  _34
REMARK   14  A    between atoms: _33  and  _36
REMARK   15  A    between atoms: _38  and  _40
REMARK   16  A    between atoms: _40  and  _41
REMARK   17  A    between atoms: _40  and  _43
REMARK   18  A    between atoms: _43  and  _44
REMARK   19  A    between atoms: _44  and  _45
REMARK   20  A    between atoms: _50  and  _52
REMARK   21  A    between atoms: _52  and  _53
REMARK   22  A    between atoms: _52  and  _55
REMARK   23  A    between atoms: _55  and  _56
REMARK   24  A    between atoms: _62  and  _64
REMARK   25  A    between atoms: _64  and  _65
REMARK   26  A    between atoms: _64  and  _67
REMARK   27  A    between atoms: _67  and  _68
REMARK   28  A    between atoms: _71  and  _73
REMARK   29  A    between atoms: _73  and  _74
REMARK   30  A    between atoms: _73  and  _76
REMARK   31  A    between atoms: _76  and  _77
REMARK   32  A    between atoms: _77  and  _78
REMARK   33  A    between atoms: _78  and  _79
REMARK   34  A    between atoms: _79  and  _80
REMARK   35  A    between atoms: _84  and  _86
REMARK   36  A    between atoms: _86  and  _87
REMARK   37  A    between atoms: _86  and  _89
REMARK   38  A    between atoms: _89  and  _90
REMARK   39  A    between atoms: _90  and  _91
REMARK   40  A    between atoms: _94  and  _96
REMARK   41  A    between atoms: _96  and  _97
REMARK   42  A    between atoms: _96  and  _99
REMARK   43  A    between atoms: _99  and  _100
REMARK   44  A    between atoms: _103  and  _105
REMARK   45  A    between atoms: _105  and  _106
REMARK   46  A    between atoms: _105  and  _108
REMARK   47  A    between atoms: _108  and  _109
REMARK   48  A    between atoms: _114  and  _115
REMARK   49  A    between atoms: _117  and  _119
REMARK   50  A    between atoms: _119  and  _120
REMARK   51  A    between atoms: _119  and  _122
REMARK   52  A    between atoms: _122  and  _123
REMARK   53  A    between atoms: _126  and  _128
REMARK   54  A    between atoms: _128  and  _129
REMARK   55  A    between atoms: _128  and  _131
REMARK   56  A    between atoms: _131  and  _132
REMARK   57  A    between atoms: _135  and  _137
REMARK   58  A    between atoms: _137  and  _138
REMARK   59  A    between atoms: _137  and  _140
REMARK   60  A    between atoms: _143  and  _145
REMARK   61  A    between atoms: _145  and  _146
REMARK   62  A    between atoms: _148  and  _150
REMARK   63  A    between atoms: _150  and  _151
REMARK   64  A    between atoms: _150  and  _153
REMARK   65  A    between atoms: _153  and  _154
REMARK   66  A    between atoms: _154  and  _155
REMARK   67  A    between atoms: _155  and  _156
REMARK   68  A    between atoms: _165  and  _167
REMARK   69  A    between atoms: _167  and  _168
REMARK   70  A    between atoms: _167  and  _170
REMARK   71  A    between atoms: _170  and  _171
REMARK   72  A    between atoms: _176  and  _178
REMARK   73  A    between atoms: _178  and  _179
REMARK   74  A    between atoms: _178  and  _181
REMARK   75  A    between atoms: _181  and  _182
REMARK   76  A    between atoms: _182  and  _183
REMARK   77  A    between atoms: _186  and  _188
REMARK   78  A    between atoms: _188  and  _189
REMARK   79  A    between atoms: _188  and  _191
REMARK   80  A    between atoms: _191  and  _192
REMARK   81  A    between atoms: _192  and  _193
REMARK   82  A    between atoms: _193  and  _194
REMARK   83  A    between atoms: _194  and  _195
REMARK   84  A    between atoms: _199  and  _201
REMARK   85  A    between atoms: _201  and  _202
REMARK   86  A    between atoms: _204  and  _206
REMARK   87  A    between atoms: _206  and  _207
REMARK   88  A    between atoms: _206  and  _209
REMARK   89  A    between atoms: _209  and  _210
REMARK   90  A    between atoms: _210  and  _211
REMARK   91  A    between atoms: _211  and  _212
REMARK   92  A    between atoms: _221  and  _223
REMARK   93  A    between atoms: _223  and  _224
REMARK   94  A    between atoms: _223  and  _226
REMARK   95  A    between atoms: _226  and  _227
REMARK   96  A    between atoms: _227  and  _228
REMARK   97  A    between atoms: _233  and  _235
REMARK   98  A    between atoms: _235  and  _236
REMARK   99  A    between atoms: _235  and  _238
REMARK  100  A    between atoms: _238  and  _239
REMARK  101  A    between atoms: _242  and  _244
REMARK  102  A    between atoms: _244  and  _245
REMARK  103  A    between atoms: _244  and  _247
REMARK  104  A    between atoms: _250  and  _252
REMARK  105  A    between atoms: _252  and  _253
REMARK  106  A    between atoms: _252  and  _255
REMARK  107  A    between atoms: _255  and  _256
REMARK  108  A    between atoms: _258  and  _260
REMARK  109  A    between atoms: _260  and  _261
REMARK  110  A    between atoms: _260  and  _263
REMARK  111  A    between atoms: _263  and  _264
REMARK  112  A    between atoms: _266  and  _268
REMARK  113  A    between atoms: _268  and  _269
REMARK  114  A    between atoms: _268  and  _271
REMARK  115  A    between atoms: _271  and  _272
REMARK  116  A    between atoms: _278  and  _280
REMARK  117  A    between atoms: _280  and  _281
REMARK  118  A    between atoms: _280  and  _283
REMARK  119  A    between atoms: _283  and  _284
REMARK  120  A    between atoms: _287  and  _289
REMARK  121  A    between atoms: _289  and  _290
REMARK  122  A    between atoms: _289  and  _292
REMARK  123  A    between atoms: _292  and  _293
REMARK  124  A    between atoms: _296  and  _298
REMARK  125  A    between atoms: _298  and  _299
REMARK  126  A    between atoms: _298  and  _301
REMARK  127  A    between atoms: _301  and  _302
REMARK  128  A    between atoms: _305  and  _307
REMARK  129  A    between atoms: _307  and  _308
REMARK  130  A    between atoms: _307  and  _310
REMARK  131  A    between atoms: _310  and  _311
REMARK  132  A    between atoms: _311  and  _312
REMARK  133  A    between atoms: _314  and  _316
REMARK  134  A    between atoms: _316  and  _317
REMARK  135  A    between atoms: _316  and  _319
REMARK  136  A    between atoms: _321  and  _323
REMARK  137  A    between atoms: _323  and  _324
REMARK  138  A    between atoms: _327  and  _329
REMARK  139  A    between atoms: _329  and  _330
REMARK  140  A    between atoms: _332  and  _334
REMARK  141  A    between atoms: _334  and  _335
REMARK  142  A    between atoms: _334  and  _337
REMARK  143  A    between atoms: _337  and  _338
REMARK  144  A    between atoms: _343  and  _344
REMARK  145  A    between atoms: _346  and  _348
REMARK  146  A    between atoms: _348  and  _349
REMARK  147  A    between atoms: _348  and  _351
REMARK  148  A    between atoms: _351  and  _352
REMARK  149  A    between atoms: _352  and  _353
REMARK  150  A    between atoms: _356  and  _358
REMARK  151  A    between atoms: _358  and  _359
REMARK  152  A    between atoms: _358  and  _361
REMARK  153  A    between atoms: _361  and  _362
REMARK  154  A    between atoms: _365  and  _367
REMARK  155  A    between atoms: _367  and  _368
REMARK  156  A    between atoms: _371  and  _373
REMARK  157  A    between atoms: _373  and  _374
REMARK  158  A    between atoms: _373  and  _376
REMARK  159  A    between atoms: _376  and  _377
REMARK  160  A    between atoms: _377  and  _500
REMARK  161  A    between atoms: _378  and  _380
REMARK  162  A    between atoms: _380  and  _381
REMARK  163  A    between atoms: _380  and  _383
REMARK  164  A    between atoms: _383  and  _384
REMARK  165  A    between atoms: _384  and  _385
REMARK  166  A    between atoms: _390  and  _392
REMARK  167  A    between atoms: _392  and  _393
REMARK  168  A    between atoms: _395  and  _397
REMARK  169  A    between atoms: _397  and  _398
REMARK  170  A    between atoms: _397  and  _400
REMARK  171  A    between atoms: _400  and  _401
REMARK  172  A    between atoms: _404  and  _406
REMARK  173  A    between atoms: _406  and  _407
REMARK  174  A    between atoms: _406  and  _409
REMARK  175  A    between atoms: _409  and  _410
REMARK  176  A    between atoms: _412  and  _414
REMARK  177  A    between atoms: _414  and  _415
REMARK  178  A    between atoms: _417  and  _419
REMARK  179  A    between atoms: _419  and  _420
REMARK  180  A    between atoms: _422  and  _424
REMARK  181  A    between atoms: _424  and  _425
REMARK  182  A    between atoms: _424  and  _427
REMARK  183  A    between atoms: _427  and  _428
REMARK  184  A    between atoms: _433  and  _435
REMARK  185  A    between atoms: _435  and  _436
REMARK  186  A    between atoms: _435  and  _438
REMARK  187  A    between atoms: _438  and  _439
REMARK  188  A    between atoms: _442  and  _444
REMARK  189  A    between atoms: _444  and  _445
REMARK  190  A    between atoms: _444  and  _447
REMARK  191  A    between atoms: _450  and  _452
REMARK  192  A    between atoms: _452  and  _453
REMARK  193  A    between atoms: _452  and  _455
REMARK  194  A    between atoms: _455  and  _456
REMARK  195  A    between atoms: _458  and  _460
REMARK  196  A    between atoms: _460  and  _461
REMARK  197  A    between atoms: _460  and  _463
REMARK  198  A    between atoms: _463  and  _464
REMARK  199  A    between atoms: _474  and  _476
REMARK  200  A    between atoms: _476  and  _477
REMARK  201  A    between atoms: _479  and  _481
REMARK  202  A    between atoms: _481  and  _482
REMARK  203  A    between atoms: _481  and  _484
REMARK  204  A    between atoms: _484  and  _485
REMARK  205  A    between atoms: _485  and  _486
REMARK  206  A    between atoms: _489  and  _491
REMARK  207  A    between atoms: _491  and  _492
REMARK  208  A    between atoms: _494  and  _496
REMARK  209  A    between atoms: _496  and  _497
REMARK  210  A    between atoms: _496  and  _499
REMARK  211  A    between atoms: _499  and  _500
REMARK  212  A    between atoms: _501  and  _503
REMARK  213  A    between atoms: _503  and  _504
REMARK  214  A    between atoms: _507  and  _509
REMARK  215  A    between atoms: _509  and  _510
REMARK  216  A    between atoms: _509  and  _512
REMARK  217  A    between atoms: _512  and  _513
REMARK  218  A    between atoms: _513  and  _514
REMARK  219  A    between atoms: _514  and  _515
REMARK  220  A    between atoms: _524  and  _526
REMARK  221  A    between atoms: _526  and  _527
REMARK  222  A    between atoms: _526  and  _529
REMARK  223  A    between atoms: _529  and  _530
REMARK  224  A    between atoms: _530  and  _531
REMARK  225  A    between atoms: _531  and  _532
REMARK  226  A    between atoms: _532  and  _533
REMARK  227  A    between atoms: _537  and  _539
REMARK  228  A    between atoms: _539  and  _540
REMARK  229  A    between atoms: _539  and  _542
REMARK  230  A    between atoms: _542  and  _543
REMARK  231  A    between atoms: _548  and  _549
REMARK  232  A    between atoms: _551  and  _553
REMARK  233  A    between atoms: _553  and  _554
REMARK  234  A    between atoms: _556  and  _558
REMARK  235  A    between atoms: _558  and  _559
REMARK  236  A    between atoms: _558  and  _561
REMARK  237  A    between atoms: _561  and  _562
REMARK  238  A    between atoms: _565  and  _567
REMARK  239  A    between atoms: _567  and  _568
REMARK  240  A    between atoms: _567  and  _570
REMARK  241  A    between atoms: _570  and  _571
REMARK  242  A    between atoms: _576  and  _577
REMARK                            x       y       z     vdW  Elec       q    Type
REMARK                         _______ _______ _______ _____ _____    ______ ____
ROOT
ATOM      1  O   HOH     1       2.456  30.638  45.780  0.00  0.00    +0.000 OA
ENDROOT
TORSDOF 0
