REMARK  Name = ../refined-set-2016/2qi3/2qi3_pocket.pdb
REMARK  219 active torsions:
REMARK  status: ('A' for Active; 'I' for Inactive)
REMARK    1  A    between atoms: _1  and  _3
REMARK    2  A    between atoms: _3  and  _4
REMARK    3  A    between atoms: _3  and  _6
REMARK    4  A    between atoms: _6  and  _7
REMARK    5  A    between atoms: _7  and  _8
REMARK    6  A    between atoms: _8  and  _9
REMARK    7  A    between atoms: _18  and  _20
REMARK    8  A    between atoms: _20  and  _21
REMARK    9  A    between atoms: _20  and  _23
REMARK   10  A    between atoms: _23  and  _24
REMARK   11  A    between atoms: _27  and  _29
REMARK   12  A    between atoms: _29  and  _30
REMARK   13  A    between atoms: _29  and  _32
REMARK   14  A    between atoms: _32  and  _33
REMARK   15  A    between atoms: _36  and  _38
REMARK   16  A    between atoms: _38  and  _39
REMARK   17  A    between atoms: _38  and  _41
REMARK   18  A    between atoms: _41  and  _42
REMARK   19  A    between atoms: _45  and  _47
REMARK   20  A    between atoms: _47  and  _48
REMARK   21  A    between atoms: _47  and  _50
REMARK   22  A    between atoms: _50  and  _51
REMARK   23  A    between atoms: _54  and  _56
REMARK   24  A    between atoms: _56  and  _57
REMARK   25  A    between atoms: _59  and  _61
REMARK   26  A    between atoms: _61  and  _62
REMARK   27  A    between atoms: _65  and  _67
REMARK   28  A    between atoms: _67  and  _68
REMARK   29  A    between atoms: _67  and  _70
REMARK   30  A    between atoms: _70  and  _71
REMARK   31  A    between atoms: _74  and  _76
REMARK   32  A    between atoms: _76  and  _77
REMARK   33  A    between atoms: _76  and  _79
REMARK   34  A    between atoms: _79  and  _80
REMARK   35  A    between atoms: _83  and  _85
REMARK   36  A    between atoms: _85  and  _86
REMARK   37  A    between atoms: _85  and  _88
REMARK   38  A    between atoms: _88  and  _89
REMARK   39  A    between atoms: _92  and  _94
REMARK   40  A    between atoms: _94  and  _95
REMARK   41  A    between atoms: _94  and  _97
REMARK   42  A    between atoms: _100  and  _102
REMARK   43  A    between atoms: _102  and  _103
REMARK   44  A    between atoms: _102  and  _105
REMARK   45  A    between atoms: _105  and  _106
REMARK   46  A    between atoms: _106  and  _107
REMARK   47  A    between atoms: _109  and  _111
REMARK   48  A    between atoms: _111  and  _112
REMARK   49  A    between atoms: _111  and  _114
REMARK   50  A    between atoms: _114  and  _115
REMARK   51  A    between atoms: _118  and  _120
REMARK   52  A    between atoms: _120  and  _121
REMARK   53  A    between atoms: _123  and  _125
REMARK   54  A    between atoms: _125  and  _126
REMARK   55  A    between atoms: _128  and  _130
REMARK   56  A    between atoms: _130  and  _131
REMARK   57  A    between atoms: _130  and  _133
REMARK   58  A    between atoms: _133  and  _134
REMARK   59  A    between atoms: _137  and  _139
REMARK   60  A    between atoms: _139  and  _140
REMARK   61  A    between atoms: _142  and  _144
REMARK   62  A    between atoms: _144  and  _145
REMARK   63  A    between atoms: _147  and  _149
REMARK   64  A    between atoms: _149  and  _150
REMARK   65  A    between atoms: _149  and  _152
REMARK   66  A    between atoms: _152  and  _153
REMARK   67  A    between atoms: _159  and  _161
REMARK   68  A    between atoms: _161  and  _162
REMARK   69  A    between atoms: _161  and  _164
REMARK   70  A    between atoms: _164  and  _165
REMARK   71  A    between atoms: _168  and  _170
REMARK   72  A    between atoms: _170  and  _171
REMARK   73  A    between atoms: _170  and  _173
REMARK   74  A    between atoms: _173  and  _174
REMARK   75  A    between atoms: _177  and  _179
REMARK   76  A    between atoms: _179  and  _180
REMARK   77  A    between atoms: _179  and  _182
REMARK   78  A    between atoms: _182  and  _183
REMARK   79  A    between atoms: _187  and  _188
REMARK   80  A    between atoms: _193  and  _195
REMARK   81  A    between atoms: _195  and  _196
REMARK   82  A    between atoms: _195  and  _198
REMARK   83  A    between atoms: _201  and  _203
REMARK   84  A    between atoms: _203  and  _204
REMARK   85  A    between atoms: _203  and  _206
REMARK   86  A    between atoms: _206  and  _207
REMARK   87  A    between atoms: _212  and  _214
REMARK   88  A    between atoms: _214  and  _215
REMARK   89  A    between atoms: _214  and  _217
REMARK   90  A    between atoms: _217  and  _218
REMARK   91  A    between atoms: _221  and  _223
REMARK   92  A    between atoms: _223  and  _224
REMARK   93  A    between atoms: _223  and  _226
REMARK   94  A    between atoms: _226  and  _227
REMARK   95  A    between atoms: _230  and  _232
REMARK   96  A    between atoms: _232  and  _233
REMARK   97  A    between atoms: _235  and  _237
REMARK   98  A    between atoms: _237  and  _238
REMARK   99  A    between atoms: _237  and  _240
REMARK  100  A    between atoms: _240  and  _241
REMARK  101  A    between atoms: _241  and  _242
REMARK  102  A    between atoms: _242  and  _243
REMARK  103  A    between atoms: _252  and  _254
REMARK  104  A    between atoms: _254  and  _255
REMARK  105  A    between atoms: _254  and  _257
REMARK  106  A    between atoms: _257  and  _258
REMARK  107  A    between atoms: _258  and  _259
REMARK  108  A    between atoms: _259  and  _260
REMARK  109  A    between atoms: _269  and  _271
REMARK  110  A    between atoms: _271  and  _272
REMARK  111  A    between atoms: _271  and  _274
REMARK  112  A    between atoms: _274  and  _275
REMARK  113  A    between atoms: _278  and  _280
REMARK  114  A    between atoms: _280  and  _281
REMARK  115  A    between atoms: _280  and  _283
REMARK  116  A    between atoms: _283  and  _284
REMARK  117  A    between atoms: _287  and  _289
REMARK  118  A    between atoms: _289  and  _290
REMARK  119  A    between atoms: _289  and  _292
REMARK  120  A    between atoms: _292  and  _293
REMARK  121  A    between atoms: _296  and  _298
REMARK  122  A    between atoms: _298  and  _299
REMARK  123  A    between atoms: _298  and  _301
REMARK  124  A    between atoms: _301  and  _302
REMARK  125  A    between atoms: _305  and  _307
REMARK  126  A    between atoms: _307  and  _308
REMARK  127  A    between atoms: _310  and  _312
REMARK  128  A    between atoms: _312  and  _313
REMARK  129  A    between atoms: _316  and  _318
REMARK  130  A    between atoms: _318  and  _319
REMARK  131  A    between atoms: _318  and  _321
REMARK  132  A    between atoms: _321  and  _322
REMARK  133  A    between atoms: _325  and  _327
REMARK  134  A    between atoms: _327  and  _328
REMARK  135  A    between atoms: _327  and  _330
REMARK  136  A    between atoms: _330  and  _331
REMARK  137  A    between atoms: _334  and  _336
REMARK  138  A    between atoms: _336  and  _337
REMARK  139  A    between atoms: _336  and  _339
REMARK  140  A    between atoms: _339  and  _340
REMARK  141  A    between atoms: _343  and  _345
REMARK  142  A    between atoms: _345  and  _346
REMARK  143  A    between atoms: _345  and  _348
REMARK  144  A    between atoms: _351  and  _353
REMARK  145  A    between atoms: _353  and  _354
REMARK  146  A    between atoms: _353  and  _356
REMARK  147  A    between atoms: _356  and  _357
REMARK  148  A    between atoms: _357  and  _358
REMARK  149  A    between atoms: _358  and  _359
REMARK  150  A    between atoms: _359  and  _360
REMARK  151  A    between atoms: _364  and  _366
REMARK  152  A    between atoms: _366  and  _367
REMARK  153  A    between atoms: _366  and  _369
REMARK  154  A    between atoms: _369  and  _370
REMARK  155  A    between atoms: _370  and  _371
REMARK  156  A    between atoms: _373  and  _375
REMARK  157  A    between atoms: _375  and  _376
REMARK  158  A    between atoms: _375  and  _378
REMARK  159  A    between atoms: _378  and  _379
REMARK  160  A    between atoms: _382  and  _384
REMARK  161  A    between atoms: _384  and  _385
REMARK  162  A    between atoms: _387  and  _389
REMARK  163  A    between atoms: _389  and  _390
REMARK  164  A    between atoms: _392  and  _394
REMARK  165  A    between atoms: _394  and  _395
REMARK  166  A    between atoms: _394  and  _397
REMARK  167  A    between atoms: _397  and  _398
REMARK  168  A    between atoms: _401  and  _403
REMARK  169  A    between atoms: _403  and  _404
REMARK  170  A    between atoms: _406  and  _408
REMARK  171  A    between atoms: _408  and  _409
REMARK  172  A    between atoms: _411  and  _413
REMARK  173  A    between atoms: _413  and  _414
REMARK  174  A    between atoms: _413  and  _416
REMARK  175  A    between atoms: _416  and  _417
REMARK  176  A    between atoms: _423  and  _425
REMARK  177  A    between atoms: _425  and  _426
REMARK  178  A    between atoms: _425  and  _428
REMARK  179  A    between atoms: _428  and  _429
REMARK  180  A    between atoms: _432  and  _434
REMARK  181  A    between atoms: _434  and  _435
REMARK  182  A    between atoms: _434  and  _437
REMARK  183  A    between atoms: _440  and  _442
REMARK  184  A    between atoms: _442  and  _443
REMARK  185  A    between atoms: _442  and  _445
REMARK  186  A    between atoms: _445  and  _446
REMARK  187  A    between atoms: _450  and  _451
REMARK  188  A    between atoms: _456  and  _458
REMARK  189  A    between atoms: _458  and  _459
REMARK  190  A    between atoms: _458  and  _461
REMARK  191  A    between atoms: _461  and  _462
REMARK  192  A    between atoms: _466  and  _467
REMARK  193  A    between atoms: _472  and  _474
REMARK  194  A    between atoms: _474  and  _475
REMARK  195  A    between atoms: _474  and  _477
REMARK  196  A    between atoms: _480  and  _482
REMARK  197  A    between atoms: _482  and  _483
REMARK  198  A    between atoms: _482  and  _485
REMARK  199  A    between atoms: _485  and  _486
REMARK  200  A    between atoms: _491  and  _493
REMARK  201  A    between atoms: _493  and  _494
REMARK  202  A    between atoms: _493  and  _496
REMARK  203  A    between atoms: _496  and  _497
REMARK  204  A    between atoms: _500  and  _502
REMARK  205  A    between atoms: _502  and  _503
REMARK  206  A    between atoms: _502  and  _505
REMARK  207  A    between atoms: _505  and  _506
REMARK  208  A    between atoms: _509  and  _511
REMARK  209  A    between atoms: _511  and  _512
REMARK  210  A    between atoms: _514  and  _516
REMARK  211  A    between atoms: _516  and  _517
REMARK  212  A    between atoms: _516  and  _519
REMARK  213  A    between atoms: _519  and  _520
REMARK  214  A    between atoms: _520  and  _521
REMARK  215  A    between atoms: _521  and  _522
REMARK  216  A    between atoms: _531  and  _533
REMARK  217  A    between atoms: _533  and  _534
REMARK  218  A    between atoms: _533  and  _536
REMARK  219  A    between atoms: _536  and  _537
REMARK                            x       y       z     vdW  Elec       q    Type
REMARK                         _______ _______ _______ _____ _____    ______ ____
ROOT
ATOM      1  NE  ARG A   1      21.169  37.275  23.615  0.00  0.00    -0.265 N 
ATOM      2  HE  ARG A   1      20.637  37.833  24.313  0.00  0.00    +0.259 HD
ATOM      3  CZ  ARG A   1      21.022  37.604  22.332  0.00  0.00    +0.342 C 
ATOM      4  NH2 ARG A   1      20.233  38.634  22.018  0.00  0.00    -0.292 N 
ATOM      5 HH21 ARG A   1      19.746  39.164  22.769  0.00  0.00    +0.255 HD
ATOM      6 HH22 ARG A   1      20.105  38.907  21.023  0.00  0.00    +0.255 HD
ATOM      7  NH1 ARG A   1      21.650  36.921  21.353  0.00  0.00    -0.292 N 
ATOM      8 HH11 ARG A   1      22.266  36.118  21.592  0.00  0.00    +0.255 HD
ATOM      9 HH12 ARG A   1      21.519  37.198  20.359  0.00  0.00    +0.255 HD
ENDROOT
BRANCH   1  10
ATOM     10  CD  ARG A   1      22.014  36.196  24.125  0.00  0.00    +0.174 C 
BRANCH  10  11
ATOM     11  CG  ARG A   1      21.267  35.222  25.002  0.00  0.00    +0.045 C 
BRANCH  11  12
ATOM     12  CB  ARG A   1      22.244  34.475  25.868  0.00  0.00    +0.029 C 
BRANCH  12  13
ATOM     13  CA  ARG A   1      21.608  33.437  26.787  0.00  0.00    +0.133 C 
BRANCH  13  14
ATOM     14  N   ARG A   1      20.884  34.085  27.883  0.00  0.00    -0.239 NA
ATOM     15  H   ARG A   1      20.838  35.124  27.914  0.00  0.00    +0.142 HD
ENDBRANCH  13  14
BRANCH  13  16
ATOM     16  C   ARG A   1      22.714  32.535  27.334  0.00  0.00    +0.224 C 
ATOM     17  O   ARG A   1      23.493  32.968  28.188  0.00  0.00    -0.287 OA
ENDBRANCH  13  16
ENDBRANCH  12  13
ENDBRANCH  11  12
ENDBRANCH  10  11
ENDBRANCH   1  10
TORSDOF 6
REMARK  Name = ../refined-set-2016/2qi3/2qi3_pocket.pdb
REMARK  219 active torsions:
REMARK  status: ('A' for Active; 'I' for Inactive)
REMARK    1  A    between atoms: _1  and  _3
REMARK    2  A    between atoms: _3  and  _4
REMARK    3  A    between atoms: _3  and  _6
REMARK    4  A    between atoms: _6  and  _7
REMARK    5  A    between atoms: _7  and  _8
REMARK    6  A    between atoms: _8  and  _9
REMARK    7  A    between atoms: _18  and  _20
REMARK    8  A    between atoms: _20  and  _21
REMARK    9  A    between atoms: _20  and  _23
REMARK   10  A    between atoms: _23  and  _24
REMARK   11  A    between atoms: _27  and  _29
REMARK   12  A    between atoms: _29  and  _30
REMARK   13  A    between atoms: _29  and  _32
REMARK   14  A    between atoms: _32  and  _33
REMARK   15  A    between atoms: _36  and  _38
REMARK   16  A    between atoms: _38  and  _39
REMARK   17  A    between atoms: _38  and  _41
REMARK   18  A    between atoms: _41  and  _42
REMARK   19  A    between atoms: _45  and  _47
REMARK   20  A    between atoms: _47  and  _48
REMARK   21  A    between atoms: _47  and  _50
REMARK   22  A    between atoms: _50  and  _51
REMARK   23  A    between atoms: _54  and  _56
REMARK   24  A    between atoms: _56  and  _57
REMARK   25  A    between atoms: _59  and  _61
REMARK   26  A    between atoms: _61  and  _62
REMARK   27  A    between atoms: _65  and  _67
REMARK   28  A    between atoms: _67  and  _68
REMARK   29  A    between atoms: _67  and  _70
REMARK   30  A    between atoms: _70  and  _71
REMARK   31  A    between atoms: _74  and  _76
REMARK   32  A    between atoms: _76  and  _77
REMARK   33  A    between atoms: _76  and  _79
REMARK   34  A    between atoms: _79  and  _80
REMARK   35  A    between atoms: _83  and  _85
REMARK   36  A    between atoms: _85  and  _86
REMARK   37  A    between atoms: _85  and  _88
REMARK   38  A    between atoms: _88  and  _89
REMARK   39  A    between atoms: _92  and  _94
REMARK   40  A    between atoms: _94  and  _95
REMARK   41  A    between atoms: _94  and  _97
REMARK   42  A    between atoms: _100  and  _102
REMARK   43  A    between atoms: _102  and  _103
REMARK   44  A    between atoms: _102  and  _105
REMARK   45  A    between atoms: _105  and  _106
REMARK   46  A    between atoms: _106  and  _107
REMARK   47  A    between atoms: _109  and  _111
REMARK   48  A    between atoms: _111  and  _112
REMARK   49  A    between atoms: _111  and  _114
REMARK   50  A    between atoms: _114  and  _115
REMARK   51  A    between atoms: _118  and  _120
REMARK   52  A    between atoms: _120  and  _121
REMARK   53  A    between atoms: _123  and  _125
REMARK   54  A    between atoms: _125  and  _126
REMARK   55  A    between atoms: _128  and  _130
REMARK   56  A    between atoms: _130  and  _131
REMARK   57  A    between atoms: _130  and  _133
REMARK   58  A    between atoms: _133  and  _134
REMARK   59  A    between atoms: _137  and  _139
REMARK   60  A    between atoms: _139  and  _140
REMARK   61  A    between atoms: _142  and  _144
REMARK   62  A    between atoms: _144  and  _145
REMARK   63  A    between atoms: _147  and  _149
REMARK   64  A    between atoms: _149  and  _150
REMARK   65  A    between atoms: _149  and  _152
REMARK   66  A    between atoms: _152  and  _153
REMARK   67  A    between atoms: _159  and  _161
REMARK   68  A    between atoms: _161  and  _162
REMARK   69  A    between atoms: _161  and  _164
REMARK   70  A    between atoms: _164  and  _165
REMARK   71  A    between atoms: _168  and  _170
REMARK   72  A    between atoms: _170  and  _171
REMARK   73  A    between atoms: _170  and  _173
REMARK   74  A    between atoms: _173  and  _174
REMARK   75  A    between atoms: _177  and  _179
REMARK   76  A    between atoms: _179  and  _180
REMARK   77  A    between atoms: _179  and  _182
REMARK   78  A    between atoms: _182  and  _183
REMARK   79  A    between atoms: _187  and  _188
REMARK   80  A    between atoms: _193  and  _195
REMARK   81  A    between atoms: _195  and  _196
REMARK   82  A    between atoms: _195  and  _198
REMARK   83  A    between atoms: _201  and  _203
REMARK   84  A    between atoms: _203  and  _204
REMARK   85  A    between atoms: _203  and  _206
REMARK   86  A    between atoms: _206  and  _207
REMARK   87  A    between atoms: _212  and  _214
REMARK   88  A    between atoms: _214  and  _215
REMARK   89  A    between atoms: _214  and  _217
REMARK   90  A    between atoms: _217  and  _218
REMARK   91  A    between atoms: _221  and  _223
REMARK   92  A    between atoms: _223  and  _224
REMARK   93  A    between atoms: _223  and  _226
REMARK   94  A    between atoms: _226  and  _227
REMARK   95  A    between atoms: _230  and  _232
REMARK   96  A    between atoms: _232  and  _233
REMARK   97  A    between atoms: _235  and  _237
REMARK   98  A    between atoms: _237  and  _238
REMARK   99  A    between atoms: _237  and  _240
REMARK  100  A    between atoms: _240  and  _241
REMARK  101  A    between atoms: _241  and  _242
REMARK  102  A    between atoms: _242  and  _243
REMARK  103  A    between atoms: _252  and  _254
REMARK  104  A    between atoms: _254  and  _255
REMARK  105  A    between atoms: _254  and  _257
REMARK  106  A    between atoms: _257  and  _258
REMARK  107  A    between atoms: _258  and  _259
REMARK  108  A    between atoms: _259  and  _260
REMARK  109  A    between atoms: _269  and  _271
REMARK  110  A    between atoms: _271  and  _272
REMARK  111  A    between atoms: _271  and  _274
REMARK  112  A    between atoms: _274  and  _275
REMARK  113  A    between atoms: _278  and  _280
REMARK  114  A    between atoms: _280  and  _281
REMARK  115  A    between atoms: _280  and  _283
REMARK  116  A    between atoms: _283  and  _284
REMARK  117  A    between atoms: _287  and  _289
REMARK  118  A    between atoms: _289  and  _290
REMARK  119  A    between atoms: _289  and  _292
REMARK  120  A    between atoms: _292  and  _293
REMARK  121  A    between atoms: _296  and  _298
REMARK  122  A    between atoms: _298  and  _299
REMARK  123  A    between atoms: _298  and  _301
REMARK  124  A    between atoms: _301  and  _302
REMARK  125  A    between atoms: _305  and  _307
REMARK  126  A    between atoms: _307  and  _308
REMARK  127  A    between atoms: _310  and  _312
REMARK  128  A    between atoms: _312  and  _313
REMARK  129  A    between atoms: _316  and  _318
REMARK  130  A    between atoms: _318  and  _319
REMARK  131  A    between atoms: _318  and  _321
REMARK  132  A    between atoms: _321  and  _322
REMARK  133  A    between atoms: _325  and  _327
REMARK  134  A    between atoms: _327  and  _328
REMARK  135  A    between atoms: _327  and  _330
REMARK  136  A    between atoms: _330  and  _331
REMARK  137  A    between atoms: _334  and  _336
REMARK  138  A    between atoms: _336  and  _337
REMARK  139  A    between atoms: _336  and  _339
REMARK  140  A    between atoms: _339  and  _340
REMARK  141  A    between atoms: _343  and  _345
REMARK  142  A    between atoms: _345  and  _346
REMARK  143  A    between atoms: _345  and  _348
REMARK  144  A    between atoms: _351  and  _353
REMARK  145  A    between atoms: _353  and  _354
REMARK  146  A    between atoms: _353  and  _356
REMARK  147  A    between atoms: _356  and  _357
REMARK  148  A    between atoms: _357  and  _358
REMARK  149  A    between atoms: _358  and  _359
REMARK  150  A    between atoms: _359  and  _360
REMARK  151  A    between atoms: _364  and  _366
REMARK  152  A    between atoms: _366  and  _367
REMARK  153  A    between atoms: _366  and  _369
REMARK  154  A    between atoms: _369  and  _370
REMARK  155  A    between atoms: _370  and  _371
REMARK  156  A    between atoms: _373  and  _375
REMARK  157  A    between atoms: _375  and  _376
REMARK  158  A    between atoms: _375  and  _378
REMARK  159  A    between atoms: _378  and  _379
REMARK  160  A    between atoms: _382  and  _384
REMARK  161  A    between atoms: _384  and  _385
REMARK  162  A    between atoms: _387  and  _389
REMARK  163  A    between atoms: _389  and  _390
REMARK  164  A    between atoms: _392  and  _394
REMARK  165  A    between atoms: _394  and  _395
REMARK  166  A    between atoms: _394  and  _397
REMARK  167  A    between atoms: _397  and  _398
REMARK  168  A    between atoms: _401  and  _403
REMARK  169  A    between atoms: _403  and  _404
REMARK  170  A    between atoms: _406  and  _408
REMARK  171  A    between atoms: _408  and  _409
REMARK  172  A    between atoms: _411  and  _413
REMARK  173  A    between atoms: _413  and  _414
REMARK  174  A    between atoms: _413  and  _416
REMARK  175  A    between atoms: _416  and  _417
REMARK  176  A    between atoms: _423  and  _425
REMARK  177  A    between atoms: _425  and  _426
REMARK  178  A    between atoms: _425  and  _428
REMARK  179  A    between atoms: _428  and  _429
REMARK  180  A    between atoms: _432  and  _434
REMARK  181  A    between atoms: _434  and  _435
REMARK  182  A    between atoms: _434  and  _437
REMARK  183  A    between atoms: _440  and  _442
REMARK  184  A    between atoms: _442  and  _443
REMARK  185  A    between atoms: _442  and  _445
REMARK  186  A    between atoms: _445  and  _446
REMARK  187  A    between atoms: _450  and  _451
REMARK  188  A    between atoms: _456  and  _458
REMARK  189  A    between atoms: _458  and  _459
REMARK  190  A    between atoms: _458  and  _461
REMARK  191  A    between atoms: _461  and  _462
REMARK  192  A    between atoms: _466  and  _467
REMARK  193  A    between atoms: _472  and  _474
REMARK  194  A    between atoms: _474  and  _475
REMARK  195  A    between atoms: _474  and  _477
REMARK  196  A    between atoms: _480  and  _482
REMARK  197  A    between atoms: _482  and  _483
REMARK  198  A    between atoms: _482  and  _485
REMARK  199  A    between atoms: _485  and  _486
REMARK  200  A    between atoms: _491  and  _493
REMARK  201  A    between atoms: _493  and  _494
REMARK  202  A    between atoms: _493  and  _496
REMARK  203  A    between atoms: _496  and  _497
REMARK  204  A    between atoms: _500  and  _502
REMARK  205  A    between atoms: _502  and  _503
REMARK  206  A    between atoms: _502  and  _505
REMARK  207  A    between atoms: _505  and  _506
REMARK  208  A    between atoms: _509  and  _511
REMARK  209  A    between atoms: _511  and  _512
REMARK  210  A    between atoms: _514  and  _516
REMARK  211  A    between atoms: _516  and  _517
REMARK  212  A    between atoms: _516  and  _519
REMARK  213  A    between atoms: _519  and  _520
REMARK  214  A    between atoms: _520  and  _521
REMARK  215  A    between atoms: _521  and  _522
REMARK  216  A    between atoms: _531  and  _533
REMARK  217  A    between atoms: _533  and  _534
REMARK  218  A    between atoms: _533  and  _536
REMARK  219  A    between atoms: _536  and  _537
REMARK                            x       y       z     vdW  Elec       q    Type
REMARK                         _______ _______ _______ _____ _____    ______ ____
ROOT
ATOM      1  C   GLY A   5      20.608  25.072  15.476  0.00  0.00    +0.243 C 
ATOM      2  N   ALA A   6      21.907  25.027  15.776  0.00  0.00    -0.297 N 
ATOM      3  H   ALA A   6      22.180  24.931  16.775  0.00  0.00    +0.150 HD
ATOM      4  O   GLY A   5      20.182  25.247  14.324  0.00  0.00    -0.273 OA
ENDROOT
BRANCH   2   5
ATOM      5  CA  ALA A   6      22.963  25.105  14.776  0.00  0.00    +0.149 C 
ATOM      6  CB  ALA A   6      23.973  26.176  15.183  0.00  0.00    +0.031 C 
BRANCH   5   7
ATOM      7  C   ALA A   6      23.649  23.750  14.616  0.00  0.00    +0.241 C 
ATOM      8  O   ALA A   6      24.119  23.185  15.594  0.00  0.00    -0.273 OA
ATOM      9  N   ASP A   7      23.672  23.221  13.386  0.00  0.00    -0.297 N 
ATOM     10  H   ASP A   7      23.152  23.701  12.624  0.00  0.00    +0.150 HD
BRANCH   9  11
ATOM     11  CA  ASP A   7      24.403  21.991  13.074  0.00  0.00    +0.160 C 
BRANCH  11  12
ATOM     12  C   ASP A   7      25.883  22.194  13.360  0.00  0.00    +0.241 C 
ATOM     13  O   ASP A   7      26.560  21.316  13.905  0.00  0.00    -0.273 OA
ATOM     14  N   ASP A   8      26.366  23.369  12.965  0.00  0.00    -0.297 N 
ATOM     15  H   ASP A   8      25.694  24.121  12.712  0.00  0.00    +0.150 HD
BRANCH  14  16
ATOM     16  CA  ASP A   8      27.773  23.648  12.871  0.00  0.00    +0.160 C 
BRANCH  16  17
ATOM     17  C   ASP A   8      28.152  24.874  13.673  0.00  0.00    +0.241 C 
ATOM     18  N   THR A   9      29.383  24.839  14.156  0.00  0.00    -0.295 N 
ATOM     19  H   THR A   9      29.941  23.973  14.013  0.00  0.00    +0.150 HD
ATOM     20  O   ASP A   8      27.374  25.816  13.829  0.00  0.00    -0.273 OA
BRANCH  18  21
ATOM     21  CA  THR A   9      30.001  25.938  14.874  0.00  0.00    +0.176 C 
BRANCH  21  22
ATOM     22  C   THR A   9      30.431  27.016  13.875  0.00  0.00    +0.243 C 
ATOM     23  N   VAL A  10      29.997  28.252  14.130  0.00  0.00    -0.298 N 
ATOM     24  H   VAL A  10      29.413  28.413  14.975  0.00  0.00    +0.150 HD
ATOM     25  O   THR A   9      31.110  26.721  12.888  0.00  0.00    -0.273 OA
BRANCH  23  26
ATOM     26  CA  VAL A  10      30.312  29.385  13.267  0.00  0.00    +0.137 C 
BRANCH  26  27
ATOM     27  CB  VAL A  10      29.095  29.875  12.470  0.00  0.00    +0.026 C 
ATOM     28  CG2 VAL A  10      28.288  28.704  11.930  0.00  0.00    +0.002 C 
ATOM     29  CG1 VAL A  10      29.548  30.782  11.325  0.00  0.00    +0.002 C 
ENDBRANCH  26  27
BRANCH  26  30
ATOM     30  C   VAL A  10      30.834  30.524  14.131  0.00  0.00    +0.227 C 
ATOM     31  O   VAL A  10      30.128  31.012  15.021  0.00  0.00    -0.286 OA
ENDBRANCH  26  30
ENDBRANCH  23  26
ENDBRANCH  21  22
BRANCH  21  32
ATOM     32  CB  THR A   9      31.201  25.404  15.672  0.00  0.00    +0.137 C 
ATOM     33  CG2 THR A   9      32.051  26.545  16.254  0.00  0.00    +0.034 C 
BRANCH  32  34
ATOM     34  OG1 THR A   9      30.709  24.553  16.714  0.00  0.00    -0.382 OA
ATOM     35  HG1 THR A   9      30.206  23.800  16.314  0.00  0.00    +0.210 HD
ENDBRANCH  32  34
ENDBRANCH  21  32
ENDBRANCH  18  21
ENDBRANCH  16  17
BRANCH  16  36
ATOM     36  CB  ASP A   8      28.167  23.881  11.408  0.00  0.00    +0.143 C 
BRANCH  36  37
ATOM     37  CG  ASP A   8      27.778  22.726  10.506  0.00  0.00    +0.367 C 
ATOM     38  OD2 ASP A   8      28.145  21.585  10.821  0.00  0.00    -0.246 OA
ATOM     39  OD1 ASP A   8      27.110  22.969   9.485  0.00  0.00    -0.246 OA
ENDBRANCH  36  37
ENDBRANCH  16  36
ENDBRANCH  14  16
ENDBRANCH  11  12
BRANCH  11  40
ATOM     40  CB  ASP A   7      24.300  21.638  11.584  0.00  0.00    +0.143 C 
BRANCH  40  41
ATOM     41  CG  ASP A   7      22.919  21.191  11.160  0.00  0.00    +0.367 C 
ATOM     42  OD2 ASP A   7      22.060  20.925  12.026  0.00  0.00    -0.246 OA
ATOM     43  OD1 ASP A   7      22.711  21.093   9.931  0.00  0.00    -0.246 OA
ENDBRANCH  40  41
ENDBRANCH  11  40
ENDBRANCH   9  11
ENDBRANCH   5   7
ENDBRANCH   2   5
BRANCH   1  44
ATOM     44  CA  GLY A   5      19.632  24.882  16.630  0.00  0.00    +0.176 C 
BRANCH  44  46
ATOM     45  C   THR A   4      20.703  23.563  18.397  0.00  0.00    +0.243 C 
ATOM     46  N   GLY A   5      20.229  24.730  17.962  0.00  0.00    -0.295 N 
ATOM     47  H   GLY A   5      20.284  25.560  18.587  0.00  0.00    +0.150 HD
ATOM     48  O   THR A   4      20.623  22.518  17.734  0.00  0.00    -0.273 OA
BRANCH  45  49
ATOM     49  CA  THR A   4      21.417  23.565  19.762  0.00  0.00    +0.176 C 
BRANCH  49  51
ATOM     50  C   ASP A   3      22.896  25.489  19.541  0.00  0.00    +0.241 C 
ATOM     51  N   THR A   4      21.884  24.895  20.168  0.00  0.00    -0.295 N 
ATOM     52  H   THR A   4      21.416  25.382  20.959  0.00  0.00    +0.150 HD
ATOM     53  O   ASP A   3      23.420  25.006  18.546  0.00  0.00    -0.273 OA
BRANCH  50  54
ATOM     54  CA  ASP A   3      23.347  26.844  20.092  0.00  0.00    +0.160 C 
BRANCH  54  57
ATOM     55  C   LEU A   2      24.365  27.238  22.286  0.00  0.00    +0.241 C 
ATOM     56  O   LEU A   2      23.332  27.659  22.798  0.00  0.00    -0.273 OA
ATOM     57  N   ASP A   3      24.411  26.686  21.075  0.00  0.00    -0.297 N 
ATOM     58  H   ASP A   3      25.243  26.117  20.820  0.00  0.00    +0.150 HD
BRANCH  55  59
ATOM     59  CA  LEU A   2      25.704  27.312  23.025  0.00  0.00    +0.149 C 
BRANCH  59  61
ATOM     60  C   LEU A   1      26.471  29.447  22.135  0.00  0.00    +0.238 C 
ATOM     61  N   LEU A   2      26.070  28.718  23.173  0.00  0.00    -0.297 N 
ATOM     62  H   LEU A   2      26.016  29.160  24.113  0.00  0.00    +0.150 HD
ATOM     63  O   LEU A   1      26.697  28.965  21.019  0.00  0.00    -0.274 OA
BRANCH  60  64
ATOM     64  CA  LEU A   1      26.661  30.938  22.394  0.00  0.00    +0.145 C 
BRANCH  64  65
ATOM     65  N   LEU A   1      28.006  31.349  22.046  0.00  0.00    -0.238 NA
ATOM     66  H   LEU A   1      28.217  31.540  21.046  0.00  0.00    +0.142 HD
ENDBRANCH  64  65
BRANCH  64  67
ATOM     67  CB  LEU A   1      25.678  31.733  21.535  0.00  0.00    +0.026 C 
BRANCH  67  68
ATOM     68  CG  LEU A   1      24.181  31.510  21.713  0.00  0.00    +0.002 C 
ATOM     69  CD2 LEU A   1      23.750  32.052  23.046  0.00  0.00    +0.000 C 
ATOM     70  CD1 LEU A   1      23.427  32.165  20.549  0.00  0.00    +0.000 C 
ENDBRANCH  67  68
ENDBRANCH  64  67
ENDBRANCH  60  64
ENDBRANCH  59  61
BRANCH  59  71
ATOM     71  CB  LEU A   2      25.651  26.597  24.381  0.00  0.00    +0.029 C 
BRANCH  71  72
ATOM     72  CG  LEU A   2      26.933  26.704  25.226  0.00  0.00    +0.002 C 
ATOM     73  CD2 LEU A   2      26.768  25.970  26.555  0.00  0.00    +0.000 C 
ATOM     74  CD1 LEU A   2      28.145  26.162  24.475  0.00  0.00    +0.000 C 
ENDBRANCH  71  72
ENDBRANCH  59  71
ENDBRANCH  55  59
ENDBRANCH  54  57
BRANCH  54  75
ATOM     75  CB  ASP A   3      23.841  27.769  18.968  0.00  0.00    +0.143 C 
BRANCH  75  76
ATOM     76  CG  ASP A   3      22.733  28.169  17.993  0.00  0.00    +0.367 C 
ATOM     77  OD2 ASP A   3      21.656  27.553  18.027  0.00  0.00    -0.246 OA
ATOM     78  OD1 ASP A   3      22.948  29.094  17.187  0.00  0.00    -0.246 OA
ENDBRANCH  75  76
ENDBRANCH  54  75
ENDBRANCH  50  54
ENDBRANCH  49  51
BRANCH  49  79
ATOM     79  CB  THR A   4      20.533  22.924  20.845  0.00  0.00    +0.137 C 
ATOM     80  CG2 THR A   4      21.340  22.701  22.123  0.00  0.00    +0.034 C 
BRANCH  79  81
ATOM     81  OG1 THR A   4      19.411  23.771  21.135  0.00  0.00    -0.382 OA
ATOM     82  HG1 THR A   4      18.875  23.900  20.313  0.00  0.00    +0.210 HD
ENDBRANCH  79  81
ENDBRANCH  49  79
ENDBRANCH  45  49
ENDBRANCH  44  46
ENDBRANCH   1  44
TORSDOF 35
REMARK  Name = ../refined-set-2016/2qi3/2qi3_pocket.pdb
REMARK  219 active torsions:
REMARK  status: ('A' for Active; 'I' for Inactive)
REMARK    1  A    between atoms: _1  and  _3
REMARK    2  A    between atoms: _3  and  _4
REMARK    3  A    between atoms: _3  and  _6
REMARK    4  A    between atoms: _6  and  _7
REMARK    5  A    between atoms: _7  and  _8
REMARK    6  A    between atoms: _8  and  _9
REMARK    7  A    between atoms: _18  and  _20
REMARK    8  A    between atoms: _20  and  _21
REMARK    9  A    between atoms: _20  and  _23
REMARK   10  A    between atoms: _23  and  _24
REMARK   11  A    between atoms: _27  and  _29
REMARK   12  A    between atoms: _29  and  _30
REMARK   13  A    between atoms: _29  and  _32
REMARK   14  A    between atoms: _32  and  _33
REMARK   15  A    between atoms: _36  and  _38
REMARK   16  A    between atoms: _38  and  _39
REMARK   17  A    between atoms: _38  and  _41
REMARK   18  A    between atoms: _41  and  _42
REMARK   19  A    between atoms: _45  and  _47
REMARK   20  A    between atoms: _47  and  _48
REMARK   21  A    between atoms: _47  and  _50
REMARK   22  A    between atoms: _50  and  _51
REMARK   23  A    between atoms: _54  and  _56
REMARK   24  A    between atoms: _56  and  _57
REMARK   25  A    between atoms: _59  and  _61
REMARK   26  A    between atoms: _61  and  _62
REMARK   27  A    between atoms: _65  and  _67
REMARK   28  A    between atoms: _67  and  _68
REMARK   29  A    between atoms: _67  and  _70
REMARK   30  A    between atoms: _70  and  _71
REMARK   31  A    between atoms: _74  and  _76
REMARK   32  A    between atoms: _76  and  _77
REMARK   33  A    between atoms: _76  and  _79
REMARK   34  A    between atoms: _79  and  _80
REMARK   35  A    between atoms: _83  and  _85
REMARK   36  A    between atoms: _85  and  _86
REMARK   37  A    between atoms: _85  and  _88
REMARK   38  A    between atoms: _88  and  _89
REMARK   39  A    between atoms: _92  and  _94
REMARK   40  A    between atoms: _94  and  _95
REMARK   41  A    between atoms: _94  and  _97
REMARK   42  A    between atoms: _100  and  _102
REMARK   43  A    between atoms: _102  and  _103
REMARK   44  A    between atoms: _102  and  _105
REMARK   45  A    between atoms: _105  and  _106
REMARK   46  A    between atoms: _106  and  _107
REMARK   47  A    between atoms: _109  and  _111
REMARK   48  A    between atoms: _111  and  _112
REMARK   49  A    between atoms: _111  and  _114
REMARK   50  A    between atoms: _114  and  _115
REMARK   51  A    between atoms: _118  and  _120
REMARK   52  A    between atoms: _120  and  _121
REMARK   53  A    between atoms: _123  and  _125
REMARK   54  A    between atoms: _125  and  _126
REMARK   55  A    between atoms: _128  and  _130
REMARK   56  A    between atoms: _130  and  _131
REMARK   57  A    between atoms: _130  and  _133
REMARK   58  A    between atoms: _133  and  _134
REMARK   59  A    between atoms: _137  and  _139
REMARK   60  A    between atoms: _139  and  _140
REMARK   61  A    between atoms: _142  and  _144
REMARK   62  A    between atoms: _144  and  _145
REMARK   63  A    between atoms: _147  and  _149
REMARK   64  A    between atoms: _149  and  _150
REMARK   65  A    between atoms: _149  and  _152
REMARK   66  A    between atoms: _152  and  _153
REMARK   67  A    between atoms: _159  and  _161
REMARK   68  A    between atoms: _161  and  _162
REMARK   69  A    between atoms: _161  and  _164
REMARK   70  A    between atoms: _164  and  _165
REMARK   71  A    between atoms: _168  and  _170
REMARK   72  A    between atoms: _170  and  _171
REMARK   73  A    between atoms: _170  and  _173
REMARK   74  A    between atoms: _173  and  _174
REMARK   75  A    between atoms: _177  and  _179
REMARK   76  A    between atoms: _179  and  _180
REMARK   77  A    between atoms: _179  and  _182
REMARK   78  A    between atoms: _182  and  _183
REMARK   79  A    between atoms: _187  and  _188
REMARK   80  A    between atoms: _193  and  _195
REMARK   81  A    between atoms: _195  and  _196
REMARK   82  A    between atoms: _195  and  _198
REMARK   83  A    between atoms: _201  and  _203
REMARK   84  A    between atoms: _203  and  _204
REMARK   85  A    between atoms: _203  and  _206
REMARK   86  A    between atoms: _206  and  _207
REMARK   87  A    between atoms: _212  and  _214
REMARK   88  A    between atoms: _214  and  _215
REMARK   89  A    between atoms: _214  and  _217
REMARK   90  A    between atoms: _217  and  _218
REMARK   91  A    between atoms: _221  and  _223
REMARK   92  A    between atoms: _223  and  _224
REMARK   93  A    between atoms: _223  and  _226
REMARK   94  A    between atoms: _226  and  _227
REMARK   95  A    between atoms: _230  and  _232
REMARK   96  A    between atoms: _232  and  _233
REMARK   97  A    between atoms: _235  and  _237
REMARK   98  A    between atoms: _237  and  _238
REMARK   99  A    between atoms: _237  and  _240
REMARK  100  A    between atoms: _240  and  _241
REMARK  101  A    between atoms: _241  and  _242
REMARK  102  A    between atoms: _242  and  _243
REMARK  103  A    between atoms: _252  and  _254
REMARK  104  A    between atoms: _254  and  _255
REMARK  105  A    between atoms: _254  and  _257
REMARK  106  A    between atoms: _257  and  _258
REMARK  107  A    between atoms: _258  and  _259
REMARK  108  A    between atoms: _259  and  _260
REMARK  109  A    between atoms: _269  and  _271
REMARK  110  A    between atoms: _271  and  _272
REMARK  111  A    between atoms: _271  and  _274
REMARK  112  A    between atoms: _274  and  _275
REMARK  113  A    between atoms: _278  and  _280
REMARK  114  A    between atoms: _280  and  _281
REMARK  115  A    between atoms: _280  and  _283
REMARK  116  A    between atoms: _283  and  _284
REMARK  117  A    between atoms: _287  and  _289
REMARK  118  A    between atoms: _289  and  _290
REMARK  119  A    between atoms: _289  and  _292
REMARK  120  A    between atoms: _292  and  _293
REMARK  121  A    between atoms: _296  and  _298
REMARK  122  A    between atoms: _298  and  _299
REMARK  123  A    between atoms: _298  and  _301
REMARK  124  A    between atoms: _301  and  _302
REMARK  125  A    between atoms: _305  and  _307
REMARK  126  A    between atoms: _307  and  _308
REMARK  127  A    between atoms: _310  and  _312
REMARK  128  A    between atoms: _312  and  _313
REMARK  129  A    between atoms: _316  and  _318
REMARK  130  A    between atoms: _318  and  _319
REMARK  131  A    between atoms: _318  and  _321
REMARK  132  A    between atoms: _321  and  _322
REMARK  133  A    between atoms: _325  and  _327
REMARK  134  A    between atoms: _327  and  _328
REMARK  135  A    between atoms: _327  and  _330
REMARK  136  A    between atoms: _330  and  _331
REMARK  137  A    between atoms: _334  and  _336
REMARK  138  A    between atoms: _336  and  _337
REMARK  139  A    between atoms: _336  and  _339
REMARK  140  A    between atoms: _339  and  _340
REMARK  141  A    between atoms: _343  and  _345
REMARK  142  A    between atoms: _345  and  _346
REMARK  143  A    between atoms: _345  and  _348
REMARK  144  A    between atoms: _351  and  _353
REMARK  145  A    between atoms: _353  and  _354
REMARK  146  A    between atoms: _353  and  _356
REMARK  147  A    between atoms: _356  and  _357
REMARK  148  A    between atoms: _357  and  _358
REMARK  149  A    between atoms: _358  and  _359
REMARK  150  A    between atoms: _359  and  _360
REMARK  151  A    between atoms: _364  and  _366
REMARK  152  A    between atoms: _366  and  _367
REMARK  153  A    between atoms: _366  and  _369
REMARK  154  A    between atoms: _369  and  _370
REMARK  155  A    between atoms: _370  and  _371
REMARK  156  A    between atoms: _373  and  _375
REMARK  157  A    between atoms: _375  and  _376
REMARK  158  A    between atoms: _375  and  _378
REMARK  159  A    between atoms: _378  and  _379
REMARK  160  A    between atoms: _382  and  _384
REMARK  161  A    between atoms: _384  and  _385
REMARK  162  A    between atoms: _387  and  _389
REMARK  163  A    between atoms: _389  and  _390
REMARK  164  A    between atoms: _392  and  _394
REMARK  165  A    between atoms: _394  and  _395
REMARK  166  A    between atoms: _394  and  _397
REMARK  167  A    between atoms: _397  and  _398
REMARK  168  A    between atoms: _401  and  _403
REMARK  169  A    between atoms: _403  and  _404
REMARK  170  A    between atoms: _406  and  _408
REMARK  171  A    between atoms: _408  and  _409
REMARK  172  A    between atoms: _411  and  _413
REMARK  173  A    between atoms: _413  and  _414
REMARK  174  A    between atoms: _413  and  _416
REMARK  175  A    between atoms: _416  and  _417
REMARK  176  A    between atoms: _423  and  _425
REMARK  177  A    between atoms: _425  and  _426
REMARK  178  A    between atoms: _425  and  _428
REMARK  179  A    between atoms: _428  and  _429
REMARK  180  A    between atoms: _432  and  _434
REMARK  181  A    between atoms: _434  and  _435
REMARK  182  A    between atoms: _434  and  _437
REMARK  183  A    between atoms: _440  and  _442
REMARK  184  A    between atoms: _442  and  _443
REMARK  185  A    between atoms: _442  and  _445
REMARK  186  A    between atoms: _445  and  _446
REMARK  187  A    between atoms: _450  and  _451
REMARK  188  A    between atoms: _456  and  _458
REMARK  189  A    between atoms: _458  and  _459
REMARK  190  A    between atoms: _458  and  _461
REMARK  191  A    between atoms: _461  and  _462
REMARK  192  A    between atoms: _466  and  _467
REMARK  193  A    between atoms: _472  and  _474
REMARK  194  A    between atoms: _474  and  _475
REMARK  195  A    between atoms: _474  and  _477
REMARK  196  A    between atoms: _480  and  _482
REMARK  197  A    between atoms: _482  and  _483
REMARK  198  A    between atoms: _482  and  _485
REMARK  199  A    between atoms: _485  and  _486
REMARK  200  A    between atoms: _491  and  _493
REMARK  201  A    between atoms: _493  and  _494
REMARK  202  A    between atoms: _493  and  _496
REMARK  203  A    between atoms: _496  and  _497
REMARK  204  A    between atoms: _500  and  _502
REMARK  205  A    between atoms: _502  and  _503
REMARK  206  A    between atoms: _502  and  _505
REMARK  207  A    between atoms: _505  and  _506
REMARK  208  A    between atoms: _509  and  _511
REMARK  209  A    between atoms: _511  and  _512
REMARK  210  A    between atoms: _514  and  _516
REMARK  211  A    between atoms: _516  and  _517
REMARK  212  A    between atoms: _516  and  _519
REMARK  213  A    between atoms: _519  and  _520
REMARK  214  A    between atoms: _520  and  _521
REMARK  215  A    between atoms: _521  and  _522
REMARK  216  A    between atoms: _531  and  _533
REMARK  217  A    between atoms: _533  and  _534
REMARK  218  A    between atoms: _533  and  _536
REMARK  219  A    between atoms: _536  and  _537
REMARK                            x       y       z     vdW  Elec       q    Type
REMARK                         _______ _______ _______ _____ _____    ______ ____
ROOT
ATOM      1  CA  ILE A   5      17.073  32.643   8.774  0.00  0.00    +0.149 C 
ENDROOT
BRANCH   1   3
ATOM      2  C   GLY A   4      18.964  31.525   7.764  0.00  0.00    +0.243 C 
ATOM      3  N   ILE A   5      18.394  32.048   8.838  0.00  0.00    -0.297 N 
ATOM      4  H   ILE A   5      18.903  32.032   9.745  0.00  0.00    +0.150 HD
ATOM      5  O   GLY A   4      18.457  31.572   6.632  0.00  0.00    -0.273 OA
BRANCH   2   6
ATOM      6  CA  GLY A   4      20.309  30.883   8.007  0.00  0.00    +0.176 C 
BRANCH   6   8
ATOM      7  C   GLY A   3      21.325  29.631   6.200  0.00  0.00    +0.243 C 
ATOM      8  N   GLY A   4      21.056  30.792   6.774  0.00  0.00    -0.295 N 
ATOM      9  H   GLY A   4      21.393  31.667   6.323  0.00  0.00    +0.150 HD
ATOM     10  O   GLY A   3      21.006  28.562   6.683  0.00  0.00    -0.273 OA
BRANCH   7  11
ATOM     11  CA  GLY A   3      22.073  29.699   4.889  0.00  0.00    +0.176 C 
BRANCH  11  13
ATOM     12  C   ILE A   2      24.490  29.419   4.683  0.00  0.00    +0.241 C 
ATOM     13  N   GLY A   3      23.290  28.904   4.930  0.00  0.00    -0.295 N 
ATOM     14  H   GLY A   3      23.218  27.893   5.162  0.00  0.00    +0.150 HD
ATOM     15  O   ILE A   2      24.691  30.615   4.454  0.00  0.00    -0.273 OA
BRANCH  12  16
ATOM     16  CA  ILE A   2      25.630  28.421   4.663  0.00  0.00    +0.148 C 
BRANCH  16  18
ATOM     17  C   MET A   1      27.204  28.081   2.837  0.00  0.00    +0.238 C 
ATOM     18  N   ILE A   2      26.668  28.885   3.750  0.00  0.00    -0.297 N 
ATOM     19  H   ILE A   2      26.997  29.869   3.815  0.00  0.00    +0.150 HD
ATOM     20  O   MET A   1      26.979  26.873   2.773  0.00  0.00    -0.274 OA
BRANCH  17  21
ATOM     21  CA  MET A   1      28.176  28.730   1.882  0.00  0.00    +0.146 C 
BRANCH  21  22
ATOM     22  N   MET A   1      29.310  27.838   1.661  0.00  0.00    -0.238 NA
ATOM     23  H   MET A   1      29.143  26.891   1.264  0.00  0.00    +0.142 HD
ENDBRANCH  21  22
BRANCH  21  24
ATOM     24  CB  MET A   1      27.484  29.084   0.571  0.00  0.00    +0.038 C 
BRANCH  24  25
ATOM     25  CG  MET A   1      28.241  30.115  -0.219  0.00  0.00    +0.060 C 
BRANCH  25  26
ATOM     26  SD  MET A   1      27.560  30.326  -1.849  0.00  0.00    -0.139 S 
ATOM     27  CE  MET A   1      26.069  31.248  -1.493  0.00  0.00    +0.069 C 
ENDBRANCH  25  26
ENDBRANCH  24  25
ENDBRANCH  21  24
ENDBRANCH  17  21
ENDBRANCH  16  18
BRANCH  16  28
ATOM     28  CB  ILE A   2      26.165  28.139   6.105  0.00  0.00    +0.027 C 
ATOM     29  CG2 ILE A   2      27.183  27.026   6.075  0.00  0.00    +0.002 C 
BRANCH  28  30
ATOM     30  CG1 ILE A   2      26.758  29.395   6.755  0.00  0.00    +0.002 C 
ATOM     31  CD1 ILE A   2      27.086  29.211   8.245  0.00  0.00    +0.000 C 
ENDBRANCH  28  30
ENDBRANCH  16  28
ENDBRANCH  12  16
ENDBRANCH  11  13
ENDBRANCH   7  11
ENDBRANCH   6   8
ENDBRANCH   2   6
ENDBRANCH   1   3
BRANCH   1  32
ATOM     32  C   ILE A   5      17.006  33.843   7.818  0.00  0.00    +0.241 C 
ATOM     33  N   GLY A   6      18.127  34.539   7.641  0.00  0.00    -0.295 N 
ATOM     34  H   GLY A   6      19.008  34.204   8.080  0.00  0.00    +0.150 HD
ATOM     35  O   ILE A   5      15.944  34.134   7.267  0.00  0.00    -0.273 OA
BRANCH  33  36
ATOM     36  CA  GLY A   6      18.148  35.763   6.844  0.00  0.00    +0.176 C 
BRANCH  36  37
ATOM     37  C   GLY A   6      18.739  35.627   5.458  0.00  0.00    +0.243 C 
ATOM     38  N   GLY A   7      19.150  34.422   5.084  0.00  0.00    -0.295 N 
ATOM     39  H   GLY A   7      19.032  33.624   5.741  0.00  0.00    +0.150 HD
ATOM     40  O   GLY A   6      18.825  36.603   4.735  0.00  0.00    -0.273 OA
BRANCH  38  41
ATOM     41  CA  GLY A   7      19.760  34.179   3.787  0.00  0.00    +0.176 C 
BRANCH  41  42
ATOM     42  C   GLY A   7      21.106  33.493   3.918  0.00  0.00    +0.243 C 
ATOM     43  O   GLY A   7      21.462  32.993   4.992  0.00  0.00    -0.273 OA
ATOM     44  N   PHE A   8      21.853  33.486   2.815  0.00  0.00    -0.297 N 
ATOM     45  H   PHE A   8      21.525  34.022   1.986  0.00  0.00    +0.150 HD
BRANCH  44  46
ATOM     46  CA  PHE A   8      23.112  32.757   2.724  0.00  0.00    +0.153 C 
BRANCH  46  47
ATOM     47  C   PHE A   8      24.323  33.667   2.909  0.00  0.00    +0.241 C 
ATOM     48  N   ILE A   9      25.347  33.134   3.577  0.00  0.00    -0.298 N 
ATOM     49  H   ILE A   9      25.221  32.201   4.019  0.00  0.00    +0.150 HD
ATOM     50  O   PHE A   8      24.323  34.817   2.460  0.00  0.00    -0.273 OA
BRANCH  48  51
ATOM     51  CA  ILE A   9      26.638  33.804   3.715  0.00  0.00    +0.137 C 
BRANCH  51  52
ATOM     52  CB  ILE A   9      26.900  34.243   5.171  0.00  0.00    +0.026 C 
ATOM     53  CG2 ILE A   9      25.829  35.241   5.627  0.00  0.00    +0.002 C 
BRANCH  52  54
ATOM     54  CG1 ILE A   9      26.962  33.039   6.115  0.00  0.00    +0.002 C 
ATOM     55  CD1 ILE A   9      27.517  33.372   7.498  0.00  0.00    +0.000 C 
ENDBRANCH  52  54
ENDBRANCH  51  52
BRANCH  51  56
ATOM     56  C   ILE A   9      27.789  32.910   3.247  0.00  0.00    +0.227 C 
ATOM     57  O   ILE A   9      27.638  31.701   3.156  0.00  0.00    -0.286 OA
ENDBRANCH  51  56
ENDBRANCH  48  51
ENDBRANCH  46  47
BRANCH  46  58
ATOM     58  CB  PHE A   8      23.189  32.008   1.379  0.00  0.00    +0.055 C 
BRANCH  58  59
ATOM     59  CG  PHE A   8      22.498  30.687   1.410  0.00  0.00    -0.020 A 
ATOM     60  CD2 PHE A   8      23.223  29.514   1.508  0.00  0.00    -0.004 A 
ATOM     61  CE2 PHE A   8      22.577  28.292   1.564  0.00  0.00    -0.000 A 
ATOM     62  CZ  PHE A   8      21.195  28.234   1.562  0.00  0.00    -0.000 A 
ATOM     63  CE1 PHE A   8      20.459  29.404   1.486  0.00  0.00    -0.000 A 
ATOM     64  CD1 PHE A   8      21.107  30.621   1.427  0.00  0.00    -0.004 A 
ENDBRANCH  58  59
ENDBRANCH  46  58
ENDBRANCH  44  46
ENDBRANCH  41  42
ENDBRANCH  38  41
ENDBRANCH  36  37
ENDBRANCH  33  36
ENDBRANCH   1  32
BRANCH   1  65
ATOM     65  CB  ILE A   5      16.599  33.057  10.180  0.00  0.00    +0.027 C 
ATOM     66  CG2 ILE A   5      16.951  34.501  10.498  0.00  0.00    +0.002 C 
BRANCH  65  67
ATOM     67  CG1 ILE A   5      15.111  32.785  10.337  0.00  0.00    +0.002 C 
ATOM     68  CD1 ILE A   5      14.656  32.827  11.767  0.00  0.00    +0.000 C 
ENDBRANCH  65  67
ENDBRANCH   1  65
TORSDOF 29
REMARK  Name = ../refined-set-2016/2qi3/2qi3_pocket.pdb
REMARK  219 active torsions:
REMARK  status: ('A' for Active; 'I' for Inactive)
REMARK    1  A    between atoms: _1  and  _3
REMARK    2  A    between atoms: _3  and  _4
REMARK    3  A    between atoms: _3  and  _6
REMARK    4  A    between atoms: _6  and  _7
REMARK    5  A    between atoms: _7  and  _8
REMARK    6  A    between atoms: _8  and  _9
REMARK    7  A    between atoms: _18  and  _20
REMARK    8  A    between atoms: _20  and  _21
REMARK    9  A    between atoms: _20  and  _23
REMARK   10  A    between atoms: _23  and  _24
REMARK   11  A    between atoms: _27  and  _29
REMARK   12  A    between atoms: _29  and  _30
REMARK   13  A    between atoms: _29  and  _32
REMARK   14  A    between atoms: _32  and  _33
REMARK   15  A    between atoms: _36  and  _38
REMARK   16  A    between atoms: _38  and  _39
REMARK   17  A    between atoms: _38  and  _41
REMARK   18  A    between atoms: _41  and  _42
REMARK   19  A    between atoms: _45  and  _47
REMARK   20  A    between atoms: _47  and  _48
REMARK   21  A    between atoms: _47  and  _50
REMARK   22  A    between atoms: _50  and  _51
REMARK   23  A    between atoms: _54  and  _56
REMARK   24  A    between atoms: _56  and  _57
REMARK   25  A    between atoms: _59  and  _61
REMARK   26  A    between atoms: _61  and  _62
REMARK   27  A    between atoms: _65  and  _67
REMARK   28  A    between atoms: _67  and  _68
REMARK   29  A    between atoms: _67  and  _70
REMARK   30  A    between atoms: _70  and  _71
REMARK   31  A    between atoms: _74  and  _76
REMARK   32  A    between atoms: _76  and  _77
REMARK   33  A    between atoms: _76  and  _79
REMARK   34  A    between atoms: _79  and  _80
REMARK   35  A    between atoms: _83  and  _85
REMARK   36  A    between atoms: _85  and  _86
REMARK   37  A    between atoms: _85  and  _88
REMARK   38  A    between atoms: _88  and  _89
REMARK   39  A    between atoms: _92  and  _94
REMARK   40  A    between atoms: _94  and  _95
REMARK   41  A    between atoms: _94  and  _97
REMARK   42  A    between atoms: _100  and  _102
REMARK   43  A    between atoms: _102  and  _103
REMARK   44  A    between atoms: _102  and  _105
REMARK   45  A    between atoms: _105  and  _106
REMARK   46  A    between atoms: _106  and  _107
REMARK   47  A    between atoms: _109  and  _111
REMARK   48  A    between atoms: _111  and  _112
REMARK   49  A    between atoms: _111  and  _114
REMARK   50  A    between atoms: _114  and  _115
REMARK   51  A    between atoms: _118  and  _120
REMARK   52  A    between atoms: _120  and  _121
REMARK   53  A    between atoms: _123  and  _125
REMARK   54  A    between atoms: _125  and  _126
REMARK   55  A    between atoms: _128  and  _130
REMARK   56  A    between atoms: _130  and  _131
REMARK   57  A    between atoms: _130  and  _133
REMARK   58  A    between atoms: _133  and  _134
REMARK   59  A    between atoms: _137  and  _139
REMARK   60  A    between atoms: _139  and  _140
REMARK   61  A    between atoms: _142  and  _144
REMARK   62  A    between atoms: _144  and  _145
REMARK   63  A    between atoms: _147  and  _149
REMARK   64  A    between atoms: _149  and  _150
REMARK   65  A    between atoms: _149  and  _152
REMARK   66  A    between atoms: _152  and  _153
REMARK   67  A    between atoms: _159  and  _161
REMARK   68  A    between atoms: _161  and  _162
REMARK   69  A    between atoms: _161  and  _164
REMARK   70  A    between atoms: _164  and  _165
REMARK   71  A    between atoms: _168  and  _170
REMARK   72  A    between atoms: _170  and  _171
REMARK   73  A    between atoms: _170  and  _173
REMARK   74  A    between atoms: _173  and  _174
REMARK   75  A    between atoms: _177  and  _179
REMARK   76  A    between atoms: _179  and  _180
REMARK   77  A    between atoms: _179  and  _182
REMARK   78  A    between atoms: _182  and  _183
REMARK   79  A    between atoms: _187  and  _188
REMARK   80  A    between atoms: _193  and  _195
REMARK   81  A    between atoms: _195  and  _196
REMARK   82  A    between atoms: _195  and  _198
REMARK   83  A    between atoms: _201  and  _203
REMARK   84  A    between atoms: _203  and  _204
REMARK   85  A    between atoms: _203  and  _206
REMARK   86  A    between atoms: _206  and  _207
REMARK   87  A    between atoms: _212  and  _214
REMARK   88  A    between atoms: _214  and  _215
REMARK   89  A    between atoms: _214  and  _217
REMARK   90  A    between atoms: _217  and  _218
REMARK   91  A    between atoms: _221  and  _223
REMARK   92  A    between atoms: _223  and  _224
REMARK   93  A    between atoms: _223  and  _226
REMARK   94  A    between atoms: _226  and  _227
REMARK   95  A    between atoms: _230  and  _232
REMARK   96  A    between atoms: _232  and  _233
REMARK   97  A    between atoms: _235  and  _237
REMARK   98  A    between atoms: _237  and  _238
REMARK   99  A    between atoms: _237  and  _240
REMARK  100  A    between atoms: _240  and  _241
REMARK  101  A    between atoms: _241  and  _242
REMARK  102  A    between atoms: _242  and  _243
REMARK  103  A    between atoms: _252  and  _254
REMARK  104  A    between atoms: _254  and  _255
REMARK  105  A    between atoms: _254  and  _257
REMARK  106  A    between atoms: _257  and  _258
REMARK  107  A    between atoms: _258  and  _259
REMARK  108  A    between atoms: _259  and  _260
REMARK  109  A    between atoms: _269  and  _271
REMARK  110  A    between atoms: _271  and  _272
REMARK  111  A    between atoms: _271  and  _274
REMARK  112  A    between atoms: _274  and  _275
REMARK  113  A    between atoms: _278  and  _280
REMARK  114  A    between atoms: _280  and  _281
REMARK  115  A    between atoms: _280  and  _283
REMARK  116  A    between atoms: _283  and  _284
REMARK  117  A    between atoms: _287  and  _289
REMARK  118  A    between atoms: _289  and  _290
REMARK  119  A    between atoms: _289  and  _292
REMARK  120  A    between atoms: _292  and  _293
REMARK  121  A    between atoms: _296  and  _298
REMARK  122  A    between atoms: _298  and  _299
REMARK  123  A    between atoms: _298  and  _301
REMARK  124  A    between atoms: _301  and  _302
REMARK  125  A    between atoms: _305  and  _307
REMARK  126  A    between atoms: _307  and  _308
REMARK  127  A    between atoms: _310  and  _312
REMARK  128  A    between atoms: _312  and  _313
REMARK  129  A    between atoms: _316  and  _318
REMARK  130  A    between atoms: _318  and  _319
REMARK  131  A    between atoms: _318  and  _321
REMARK  132  A    between atoms: _321  and  _322
REMARK  133  A    between atoms: _325  and  _327
REMARK  134  A    between atoms: _327  and  _328
REMARK  135  A    between atoms: _327  and  _330
REMARK  136  A    between atoms: _330  and  _331
REMARK  137  A    between atoms: _334  and  _336
REMARK  138  A    between atoms: _336  and  _337
REMARK  139  A    between atoms: _336  and  _339
REMARK  140  A    between atoms: _339  and  _340
REMARK  141  A    between atoms: _343  and  _345
REMARK  142  A    between atoms: _345  and  _346
REMARK  143  A    between atoms: _345  and  _348
REMARK  144  A    between atoms: _351  and  _353
REMARK  145  A    between atoms: _353  and  _354
REMARK  146  A    between atoms: _353  and  _356
REMARK  147  A    between atoms: _356  and  _357
REMARK  148  A    between atoms: _357  and  _358
REMARK  149  A    between atoms: _358  and  _359
REMARK  150  A    between atoms: _359  and  _360
REMARK  151  A    between atoms: _364  and  _366
REMARK  152  A    between atoms: _366  and  _367
REMARK  153  A    between atoms: _366  and  _369
REMARK  154  A    between atoms: _369  and  _370
REMARK  155  A    between atoms: _370  and  _371
REMARK  156  A    between atoms: _373  and  _375
REMARK  157  A    between atoms: _375  and  _376
REMARK  158  A    between atoms: _375  and  _378
REMARK  159  A    between atoms: _378  and  _379
REMARK  160  A    between atoms: _382  and  _384
REMARK  161  A    between atoms: _384  and  _385
REMARK  162  A    between atoms: _387  and  _389
REMARK  163  A    between atoms: _389  and  _390
REMARK  164  A    between atoms: _392  and  _394
REMARK  165  A    between atoms: _394  and  _395
REMARK  166  A    between atoms: _394  and  _397
REMARK  167  A    between atoms: _397  and  _398
REMARK  168  A    between atoms: _401  and  _403
REMARK  169  A    between atoms: _403  and  _404
REMARK  170  A    between atoms: _406  and  _408
REMARK  171  A    between atoms: _408  and  _409
REMARK  172  A    between atoms: _411  and  _413
REMARK  173  A    between atoms: _413  and  _414
REMARK  174  A    between atoms: _413  and  _416
REMARK  175  A    between atoms: _416  and  _417
REMARK  176  A    between atoms: _423  and  _425
REMARK  177  A    between atoms: _425  and  _426
REMARK  178  A    between atoms: _425  and  _428
REMARK  179  A    between atoms: _428  and  _429
REMARK  180  A    between atoms: _432  and  _434
REMARK  181  A    between atoms: _434  and  _435
REMARK  182  A    between atoms: _434  and  _437
REMARK  183  A    between atoms: _440  and  _442
REMARK  184  A    between atoms: _442  and  _443
REMARK  185  A    between atoms: _442  and  _445
REMARK  186  A    between atoms: _445  and  _446
REMARK  187  A    between atoms: _450  and  _451
REMARK  188  A    between atoms: _456  and  _458
REMARK  189  A    between atoms: _458  and  _459
REMARK  190  A    between atoms: _458  and  _461
REMARK  191  A    between atoms: _461  and  _462
REMARK  192  A    between atoms: _466  and  _467
REMARK  193  A    between atoms: _472  and  _474
REMARK  194  A    between atoms: _474  and  _475
REMARK  195  A    between atoms: _474  and  _477
REMARK  196  A    between atoms: _480  and  _482
REMARK  197  A    between atoms: _482  and  _483
REMARK  198  A    between atoms: _482  and  _485
REMARK  199  A    between atoms: _485  and  _486
REMARK  200  A    between atoms: _491  and  _493
REMARK  201  A    between atoms: _493  and  _494
REMARK  202  A    between atoms: _493  and  _496
REMARK  203  A    between atoms: _496  and  _497
REMARK  204  A    between atoms: _500  and  _502
REMARK  205  A    between atoms: _502  and  _503
REMARK  206  A    between atoms: _502  and  _505
REMARK  207  A    between atoms: _505  and  _506
REMARK  208  A    between atoms: _509  and  _511
REMARK  209  A    between atoms: _511  and  _512
REMARK  210  A    between atoms: _514  and  _516
REMARK  211  A    between atoms: _516  and  _517
REMARK  212  A    between atoms: _516  and  _519
REMARK  213  A    between atoms: _519  and  _520
REMARK  214  A    between atoms: _520  and  _521
REMARK  215  A    between atoms: _521  and  _522
REMARK  216  A    between atoms: _531  and  _533
REMARK  217  A    between atoms: _533  and  _534
REMARK  218  A    between atoms: _533  and  _536
REMARK  219  A    between atoms: _536  and  _537
REMARK                            x       y       z     vdW  Elec       q    Type
REMARK                         _______ _______ _______ _____ _____    ______ ____
ROOT
ATOM      1  CA  LEU A   1      33.327  27.856  10.132  0.00  0.00    +0.133 C 
ENDROOT
BRANCH   1   2
ATOM      2  N   LEU A   1      33.602  26.994  11.259  0.00  0.00    -0.239 NA
ATOM      3  H   LEU A   1      32.858  26.833  11.967  0.00  0.00    +0.142 HD
ENDBRANCH   1   2
BRANCH   1   4
ATOM      4  C   LEU A   1      33.542  29.290  10.597  0.00  0.00    +0.224 C 
ATOM      5  O   LEU A   1      33.141  29.650  11.698  0.00  0.00    -0.287 OA
ENDBRANCH   1   4
BRANCH   1   6
ATOM      6  CB  LEU A   1      31.891  27.649   9.644  0.00  0.00    +0.025 C 
BRANCH   6   7
ATOM      7  CG  LEU A   1      31.521  26.206   9.313  0.00  0.00    +0.002 C 
ATOM      8  CD2 LEU A   1      30.064  26.129   8.871  0.00  0.00    +0.000 C 
ATOM      9  CD1 LEU A   1      32.459  25.632   8.236  0.00  0.00    +0.000 C 
ENDBRANCH   6   7
ENDBRANCH   1   6
TORSDOF 4
REMARK  Name = ../refined-set-2016/2qi3/2qi3_pocket.pdb
REMARK  219 active torsions:
REMARK  status: ('A' for Active; 'I' for Inactive)
REMARK    1  A    between atoms: _1  and  _3
REMARK    2  A    between atoms: _3  and  _4
REMARK    3  A    between atoms: _3  and  _6
REMARK    4  A    between atoms: _6  and  _7
REMARK    5  A    between atoms: _7  and  _8
REMARK    6  A    between atoms: _8  and  _9
REMARK    7  A    between atoms: _18  and  _20
REMARK    8  A    between atoms: _20  and  _21
REMARK    9  A    between atoms: _20  and  _23
REMARK   10  A    between atoms: _23  and  _24
REMARK   11  A    between atoms: _27  and  _29
REMARK   12  A    between atoms: _29  and  _30
REMARK   13  A    between atoms: _29  and  _32
REMARK   14  A    between atoms: _32  and  _33
REMARK   15  A    between atoms: _36  and  _38
REMARK   16  A    between atoms: _38  and  _39
REMARK   17  A    between atoms: _38  and  _41
REMARK   18  A    between atoms: _41  and  _42
REMARK   19  A    between atoms: _45  and  _47
REMARK   20  A    between atoms: _47  and  _48
REMARK   21  A    between atoms: _47  and  _50
REMARK   22  A    between atoms: _50  and  _51
REMARK   23  A    between atoms: _54  and  _56
REMARK   24  A    between atoms: _56  and  _57
REMARK   25  A    between atoms: _59  and  _61
REMARK   26  A    between atoms: _61  and  _62
REMARK   27  A    between atoms: _65  and  _67
REMARK   28  A    between atoms: _67  and  _68
REMARK   29  A    between atoms: _67  and  _70
REMARK   30  A    between atoms: _70  and  _71
REMARK   31  A    between atoms: _74  and  _76
REMARK   32  A    between atoms: _76  and  _77
REMARK   33  A    between atoms: _76  and  _79
REMARK   34  A    between atoms: _79  and  _80
REMARK   35  A    between atoms: _83  and  _85
REMARK   36  A    between atoms: _85  and  _86
REMARK   37  A    between atoms: _85  and  _88
REMARK   38  A    between atoms: _88  and  _89
REMARK   39  A    between atoms: _92  and  _94
REMARK   40  A    between atoms: _94  and  _95
REMARK   41  A    between atoms: _94  and  _97
REMARK   42  A    between atoms: _100  and  _102
REMARK   43  A    between atoms: _102  and  _103
REMARK   44  A    between atoms: _102  and  _105
REMARK   45  A    between atoms: _105  and  _106
REMARK   46  A    between atoms: _106  and  _107
REMARK   47  A    between atoms: _109  and  _111
REMARK   48  A    between atoms: _111  and  _112
REMARK   49  A    between atoms: _111  and  _114
REMARK   50  A    between atoms: _114  and  _115
REMARK   51  A    between atoms: _118  and  _120
REMARK   52  A    between atoms: _120  and  _121
REMARK   53  A    between atoms: _123  and  _125
REMARK   54  A    between atoms: _125  and  _126
REMARK   55  A    between atoms: _128  and  _130
REMARK   56  A    between atoms: _130  and  _131
REMARK   57  A    between atoms: _130  and  _133
REMARK   58  A    between atoms: _133  and  _134
REMARK   59  A    between atoms: _137  and  _139
REMARK   60  A    between atoms: _139  and  _140
REMARK   61  A    between atoms: _142  and  _144
REMARK   62  A    between atoms: _144  and  _145
REMARK   63  A    between atoms: _147  and  _149
REMARK   64  A    between atoms: _149  and  _150
REMARK   65  A    between atoms: _149  and  _152
REMARK   66  A    between atoms: _152  and  _153
REMARK   67  A    between atoms: _159  and  _161
REMARK   68  A    between atoms: _161  and  _162
REMARK   69  A    between atoms: _161  and  _164
REMARK   70  A    between atoms: _164  and  _165
REMARK   71  A    between atoms: _168  and  _170
REMARK   72  A    between atoms: _170  and  _171
REMARK   73  A    between atoms: _170  and  _173
REMARK   74  A    between atoms: _173  and  _174
REMARK   75  A    between atoms: _177  and  _179
REMARK   76  A    between atoms: _179  and  _180
REMARK   77  A    between atoms: _179  and  _182
REMARK   78  A    between atoms: _182  and  _183
REMARK   79  A    between atoms: _187  and  _188
REMARK   80  A    between atoms: _193  and  _195
REMARK   81  A    between atoms: _195  and  _196
REMARK   82  A    between atoms: _195  and  _198
REMARK   83  A    between atoms: _201  and  _203
REMARK   84  A    between atoms: _203  and  _204
REMARK   85  A    between atoms: _203  and  _206
REMARK   86  A    between atoms: _206  and  _207
REMARK   87  A    between atoms: _212  and  _214
REMARK   88  A    between atoms: _214  and  _215
REMARK   89  A    between atoms: _214  and  _217
REMARK   90  A    between atoms: _217  and  _218
REMARK   91  A    between atoms: _221  and  _223
REMARK   92  A    between atoms: _223  and  _224
REMARK   93  A    between atoms: _223  and  _226
REMARK   94  A    between atoms: _226  and  _227
REMARK   95  A    between atoms: _230  and  _232
REMARK   96  A    between atoms: _232  and  _233
REMARK   97  A    between atoms: _235  and  _237
REMARK   98  A    between atoms: _237  and  _238
REMARK   99  A    between atoms: _237  and  _240
REMARK  100  A    between atoms: _240  and  _241
REMARK  101  A    between atoms: _241  and  _242
REMARK  102  A    between atoms: _242  and  _243
REMARK  103  A    between atoms: _252  and  _254
REMARK  104  A    between atoms: _254  and  _255
REMARK  105  A    between atoms: _254  and  _257
REMARK  106  A    between atoms: _257  and  _258
REMARK  107  A    between atoms: _258  and  _259
REMARK  108  A    between atoms: _259  and  _260
REMARK  109  A    between atoms: _269  and  _271
REMARK  110  A    between atoms: _271  and  _272
REMARK  111  A    between atoms: _271  and  _274
REMARK  112  A    between atoms: _274  and  _275
REMARK  113  A    between atoms: _278  and  _280
REMARK  114  A    between atoms: _280  and  _281
REMARK  115  A    between atoms: _280  and  _283
REMARK  116  A    between atoms: _283  and  _284
REMARK  117  A    between atoms: _287  and  _289
REMARK  118  A    between atoms: _289  and  _290
REMARK  119  A    between atoms: _289  and  _292
REMARK  120  A    between atoms: _292  and  _293
REMARK  121  A    between atoms: _296  and  _298
REMARK  122  A    between atoms: _298  and  _299
REMARK  123  A    between atoms: _298  and  _301
REMARK  124  A    between atoms: _301  and  _302
REMARK  125  A    between atoms: _305  and  _307
REMARK  126  A    between atoms: _307  and  _308
REMARK  127  A    between atoms: _310  and  _312
REMARK  128  A    between atoms: _312  and  _313
REMARK  129  A    between atoms: _316  and  _318
REMARK  130  A    between atoms: _318  and  _319
REMARK  131  A    between atoms: _318  and  _321
REMARK  132  A    between atoms: _321  and  _322
REMARK  133  A    between atoms: _325  and  _327
REMARK  134  A    between atoms: _327  and  _328
REMARK  135  A    between atoms: _327  and  _330
REMARK  136  A    between atoms: _330  and  _331
REMARK  137  A    between atoms: _334  and  _336
REMARK  138  A    between atoms: _336  and  _337
REMARK  139  A    between atoms: _336  and  _339
REMARK  140  A    between atoms: _339  and  _340
REMARK  141  A    between atoms: _343  and  _345
REMARK  142  A    between atoms: _345  and  _346
REMARK  143  A    between atoms: _345  and  _348
REMARK  144  A    between atoms: _351  and  _353
REMARK  145  A    between atoms: _353  and  _354
REMARK  146  A    between atoms: _353  and  _356
REMARK  147  A    between atoms: _356  and  _357
REMARK  148  A    between atoms: _357  and  _358
REMARK  149  A    between atoms: _358  and  _359
REMARK  150  A    between atoms: _359  and  _360
REMARK  151  A    between atoms: _364  and  _366
REMARK  152  A    between atoms: _366  and  _367
REMARK  153  A    between atoms: _366  and  _369
REMARK  154  A    between atoms: _369  and  _370
REMARK  155  A    between atoms: _370  and  _371
REMARK  156  A    between atoms: _373  and  _375
REMARK  157  A    between atoms: _375  and  _376
REMARK  158  A    between atoms: _375  and  _378
REMARK  159  A    between atoms: _378  and  _379
REMARK  160  A    between atoms: _382  and  _384
REMARK  161  A    between atoms: _384  and  _385
REMARK  162  A    between atoms: _387  and  _389
REMARK  163  A    between atoms: _389  and  _390
REMARK  164  A    between atoms: _392  and  _394
REMARK  165  A    between atoms: _394  and  _395
REMARK  166  A    between atoms: _394  and  _397
REMARK  167  A    between atoms: _397  and  _398
REMARK  168  A    between atoms: _401  and  _403
REMARK  169  A    between atoms: _403  and  _404
REMARK  170  A    between atoms: _406  and  _408
REMARK  171  A    between atoms: _408  and  _409
REMARK  172  A    between atoms: _411  and  _413
REMARK  173  A    between atoms: _413  and  _414
REMARK  174  A    between atoms: _413  and  _416
REMARK  175  A    between atoms: _416  and  _417
REMARK  176  A    between atoms: _423  and  _425
REMARK  177  A    between atoms: _425  and  _426
REMARK  178  A    between atoms: _425  and  _428
REMARK  179  A    between atoms: _428  and  _429
REMARK  180  A    between atoms: _432  and  _434
REMARK  181  A    between atoms: _434  and  _435
REMARK  182  A    between atoms: _434  and  _437
REMARK  183  A    between atoms: _440  and  _442
REMARK  184  A    between atoms: _442  and  _443
REMARK  185  A    between atoms: _442  and  _445
REMARK  186  A    between atoms: _445  and  _446
REMARK  187  A    between atoms: _450  and  _451
REMARK  188  A    between atoms: _456  and  _458
REMARK  189  A    between atoms: _458  and  _459
REMARK  190  A    between atoms: _458  and  _461
REMARK  191  A    between atoms: _461  and  _462
REMARK  192  A    between atoms: _466  and  _467
REMARK  193  A    between atoms: _472  and  _474
REMARK  194  A    between atoms: _474  and  _475
REMARK  195  A    between atoms: _474  and  _477
REMARK  196  A    between atoms: _480  and  _482
REMARK  197  A    between atoms: _482  and  _483
REMARK  198  A    between atoms: _482  and  _485
REMARK  199  A    between atoms: _485  and  _486
REMARK  200  A    between atoms: _491  and  _493
REMARK  201  A    between atoms: _493  and  _494
REMARK  202  A    between atoms: _493  and  _496
REMARK  203  A    between atoms: _496  and  _497
REMARK  204  A    between atoms: _500  and  _502
REMARK  205  A    between atoms: _502  and  _503
REMARK  206  A    between atoms: _502  and  _505
REMARK  207  A    between atoms: _505  and  _506
REMARK  208  A    between atoms: _509  and  _511
REMARK  209  A    between atoms: _511  and  _512
REMARK  210  A    between atoms: _514  and  _516
REMARK  211  A    between atoms: _516  and  _517
REMARK  212  A    between atoms: _516  and  _519
REMARK  213  A    between atoms: _519  and  _520
REMARK  214  A    between atoms: _520  and  _521
REMARK  215  A    between atoms: _521  and  _522
REMARK  216  A    between atoms: _531  and  _533
REMARK  217  A    between atoms: _533  and  _534
REMARK  218  A    between atoms: _533  and  _536
REMARK  219  A    between atoms: _536  and  _537
REMARK                            x       y       z     vdW  Elec       q    Type
REMARK                         _______ _______ _______ _____ _____    ______ ____
ROOT
ATOM      1  CA  ILE A   5      27.882  30.051  17.921  0.00  0.00    +0.149 C 
ENDROOT
BRANCH   1   4
ATOM      2  C   ASN A   4      28.982  32.185  18.347  0.00  0.00    +0.241 C 
ATOM      3  O   ASN A   4      28.408  32.332  19.424  0.00  0.00    -0.273 OA
ATOM      4  N   ILE A   5      28.783  31.135  17.553  0.00  0.00    -0.297 N 
ATOM      5  H   ILE A   5      29.285  31.087  16.644  0.00  0.00    +0.150 HD
BRANCH   2   6
ATOM      6  CA  ASN A   4      29.946  33.256  17.850  0.00  0.00    +0.158 C 
BRANCH   6   8
ATOM      7  C   VAL A   3      28.180  34.722  16.989  0.00  0.00    +0.241 C 
ATOM      8  N   ASN A   4      29.244  34.551  17.782  0.00  0.00    -0.297 N 
ATOM      9  H   ASN A   4      29.582  35.346  18.361  0.00  0.00    +0.150 HD
ATOM     10  O   VAL A   3      27.809  33.871  16.174  0.00  0.00    -0.273 OA
BRANCH   7  11
ATOM     11  CA  VAL A   3      27.402  36.041  17.121  0.00  0.00    +0.149 C 
BRANCH  11  14
ATOM     12  C   PRO A   2      26.597  37.641  15.429  0.00  0.00    +0.241 C 
ATOM     13  O   PRO A   2      26.881  38.637  16.090  0.00  0.00    -0.273 OA
ATOM     14  N   VAL A   3      26.851  36.390  15.816  0.00  0.00    -0.297 N 
ATOM     15  H   VAL A   3      26.644  35.619  15.149  0.00  0.00    +0.150 HD
BRANCH  12  19
ATOM     16  C   THR A   1      27.455  36.485  12.746  0.00  0.00    +0.244 C 
ATOM     17  O   THR A   1      28.408  37.172  13.133  0.00  0.00    -0.273 OA
ATOM     18  N   PRO A   2      26.186  36.728  13.123  0.00  0.00    -0.272 N 
ATOM     19  CA  PRO A   2      25.913  37.803  14.084  0.00  0.00    +0.152 C 
ATOM     20  CB  PRO A   2      24.388  37.746  14.285  0.00  0.00    +0.031 C 
ATOM     21  CG  PRO A   2      23.860  36.905  13.206  0.00  0.00    +0.024 C 
ATOM     22  CD  PRO A   2      24.951  36.046  12.685  0.00  0.00    +0.094 C 
BRANCH  16  23
ATOM     23  CA  THR A   1      27.699  35.316  11.789  0.00  0.00    +0.172 C 
BRANCH  23  24
ATOM     24  CB  THR A   1      28.037  34.024  12.576  0.00  0.00    +0.135 C 
ATOM     25  CG2 THR A   1      29.388  34.110  13.292  0.00  0.00    +0.034 C 
BRANCH  24  26
ATOM     26  OG1 THR A   1      27.014  33.766  13.533  0.00  0.00    -0.383 OA
ATOM     27  HG1 THR A   1      26.952  34.528  14.162  0.00  0.00    +0.210 HD
ENDBRANCH  24  26
ENDBRANCH  23  24
BRANCH  23  28
ATOM     28  N   THR A   1      28.762  35.674  10.859  0.00  0.00    -0.236 NA
ATOM     29  H   THR A   1      29.699  35.237  10.969  0.00  0.00    +0.142 HD
ENDBRANCH  23  28
ENDBRANCH  16  23
ENDBRANCH  12  19
ENDBRANCH  11  14
BRANCH  11  30
ATOM     30  CB  VAL A   3      26.241  35.893  18.158  0.00  0.00    +0.027 C 
ATOM     31  CG2 VAL A   3      26.642  35.040  19.359  0.00  0.00    +0.002 C 
ATOM     32  CG1 VAL A   3      25.726  37.274  18.595  0.00  0.00    +0.002 C 
ENDBRANCH  11  30
ENDBRANCH   7  11
ENDBRANCH   6   8
BRANCH   6  33
ATOM     33  CB  ASN A   4      31.129  33.299  18.815  0.00  0.00    +0.114 C 
BRANCH  33  34
ATOM     34  CG  ASN A   4      32.246  34.220  18.361  0.00  0.00    +0.222 C 
ATOM     35  ND2 ASN A   4      32.868  34.873  19.328  0.00  0.00    -0.329 N 
ATOM     36 HD21 ASN A   4      32.565  34.752  20.316  0.00  0.00    +0.145 HD
ATOM     37 HD22 ASN A   4      33.660  35.508  19.101  0.00  0.00    +0.145 HD
ATOM     38  OD1 ASN A   4      32.566  34.328  17.166  0.00  0.00    -0.275 OA
ENDBRANCH  33  34
ENDBRANCH   6  33
ENDBRANCH   2   6
ENDBRANCH   1   4
BRANCH   1  39
ATOM     39  C   ILE A   5      28.585  28.703  17.936  0.00  0.00    +0.241 C 
ATOM     40  N   ILE A   6      28.399  27.987  19.046  0.00  0.00    -0.297 N 
ATOM     41  H   ILE A   6      27.900  28.424  19.848  0.00  0.00    +0.150 HD
ATOM     42  O   ILE A   5      29.285  28.319  16.981  0.00  0.00    -0.273 OA
BRANCH  40  43
ATOM     43  CA  ILE A   6      28.870  26.615  19.174  0.00  0.00    +0.149 C 
BRANCH  43  44
ATOM     44  C   ILE A   6      27.718  25.715  18.770  0.00  0.00    +0.241 C 
ATOM     45  O   ILE A   6      26.688  25.677  19.447  0.00  0.00    -0.273 OA
ATOM     46  N   GLY A   7      27.900  24.995  17.665  0.00  0.00    -0.295 N 
ATOM     47  H   GLY A   7      28.818  25.045  17.178  0.00  0.00    +0.150 HD
BRANCH  46  48
ATOM     48  CA  GLY A   7      26.859  24.140  17.115  0.00  0.00    +0.176 C 
BRANCH  48  49
ATOM     49  C   GLY A   7      27.015  22.708  17.560  0.00  0.00    +0.243 C 
ATOM     50  O   GLY A   7      27.923  22.375  18.310  0.00  0.00    -0.273 OA
ATOM     51  N   ARG A   8      26.140  21.846  17.053  0.00  0.00    -0.298 N 
ATOM     52  H   ARG A   8      25.488  22.162  16.307  0.00  0.00    +0.150 HD
BRANCH  51  53
ATOM     53  CA  ARG A   8      26.076  20.464  17.522  0.00  0.00    +0.137 C 
BRANCH  53  54
ATOM     54  C   ARG A   8      27.361  19.679  17.267  0.00  0.00    +0.227 C 
ATOM     55  O   ARG A   8      27.668  18.764  18.030  0.00  0.00    -0.286 OA
ENDBRANCH  53  54
BRANCH  53  56
ATOM     56  CB  ARG A   8      24.868  19.742  16.929  0.00  0.00    +0.031 C 
BRANCH  56  57
ATOM     57  CG  ARG A   8      23.533  20.313  17.405  0.00  0.00    +0.045 C 
BRANCH  57  58
ATOM     58  CD  ARG A   8      22.320  19.531  16.892  0.00  0.00    +0.174 C 
BRANCH  58  59
ATOM     59  NE  ARG A   8      22.265  19.462  15.429  0.00  0.00    -0.265 N 
ATOM     60  HE  ARG A   8      21.826  20.262  14.930  0.00  0.00    +0.259 HD
ATOM     61  CZ  ARG A   8      22.731  18.460  14.684  0.00  0.00    +0.342 C 
ATOM     62  NH2 ARG A   8      23.307  17.388  15.216  0.00  0.00    -0.292 N 
ATOM     63 HH21 ARG A   8      23.407  17.310  16.248  0.00  0.00    +0.255 HD
ATOM     64 HH22 ARG A   8      23.658  16.627  14.600  0.00  0.00    +0.255 HD
ATOM     65  NH1 ARG A   8      22.630  18.537  13.373  0.00  0.00    -0.292 N 
ATOM     66 HH11 ARG A   8      22.191  19.371  12.933  0.00  0.00    +0.255 HD
ATOM     67 HH12 ARG A   8      22.989  17.764  12.777  0.00  0.00    +0.255 HD
ENDBRANCH  58  59
ENDBRANCH  57  58
ENDBRANCH  56  57
ENDBRANCH  53  56
ENDBRANCH  51  53
ENDBRANCH  48  49
ENDBRANCH  46  48
ENDBRANCH  43  44
BRANCH  43  68
ATOM     68  CB  ILE A   6      29.302  26.274  20.614  0.00  0.00    +0.027 C 
ATOM     69  CG2 ILE A   6      29.879  24.853  20.675  0.00  0.00    +0.002 C 
BRANCH  68  70
ATOM     70  CG1 ILE A   6      30.324  27.301  21.134  0.00  0.00    +0.002 C 
ATOM     71  CD1 ILE A   6      31.536  27.505  20.214  0.00  0.00    +0.000 C 
ENDBRANCH  68  70
ENDBRANCH  43  68
ENDBRANCH  40  43
ENDBRANCH   1  39
BRANCH   1  72
ATOM     72  CB  ILE A   5      26.592  29.989  17.028  0.00  0.00    +0.027 C 
ATOM     73  CG2 ILE A   5      25.794  31.260  17.175  0.00  0.00    +0.002 C 
BRANCH  72  74
ATOM     74  CG1 ILE A   5      26.923  29.708  15.554  0.00  0.00    +0.002 C 
ATOM     75  CD1 ILE A   5      25.735  29.751  14.644  0.00  0.00    +0.000 C 
ENDBRANCH  72  74
ENDBRANCH   1  72
TORSDOF 28
REMARK  Name = ../refined-set-2016/2qi3/2qi3_pocket.pdb
REMARK  219 active torsions:
REMARK  status: ('A' for Active; 'I' for Inactive)
REMARK    1  A    between atoms: _1  and  _3
REMARK    2  A    between atoms: _3  and  _4
REMARK    3  A    between atoms: _3  and  _6
REMARK    4  A    between atoms: _6  and  _7
REMARK    5  A    between atoms: _7  and  _8
REMARK    6  A    between atoms: _8  and  _9
REMARK    7  A    between atoms: _18  and  _20
REMARK    8  A    between atoms: _20  and  _21
REMARK    9  A    between atoms: _20  and  _23
REMARK   10  A    between atoms: _23  and  _24
REMARK   11  A    between atoms: _27  and  _29
REMARK   12  A    between atoms: _29  and  _30
REMARK   13  A    between atoms: _29  and  _32
REMARK   14  A    between atoms: _32  and  _33
REMARK   15  A    between atoms: _36  and  _38
REMARK   16  A    between atoms: _38  and  _39
REMARK   17  A    between atoms: _38  and  _41
REMARK   18  A    between atoms: _41  and  _42
REMARK   19  A    between atoms: _45  and  _47
REMARK   20  A    between atoms: _47  and  _48
REMARK   21  A    between atoms: _47  and  _50
REMARK   22  A    between atoms: _50  and  _51
REMARK   23  A    between atoms: _54  and  _56
REMARK   24  A    between atoms: _56  and  _57
REMARK   25  A    between atoms: _59  and  _61
REMARK   26  A    between atoms: _61  and  _62
REMARK   27  A    between atoms: _65  and  _67
REMARK   28  A    between atoms: _67  and  _68
REMARK   29  A    between atoms: _67  and  _70
REMARK   30  A    between atoms: _70  and  _71
REMARK   31  A    between atoms: _74  and  _76
REMARK   32  A    between atoms: _76  and  _77
REMARK   33  A    between atoms: _76  and  _79
REMARK   34  A    between atoms: _79  and  _80
REMARK   35  A    between atoms: _83  and  _85
REMARK   36  A    between atoms: _85  and  _86
REMARK   37  A    between atoms: _85  and  _88
REMARK   38  A    between atoms: _88  and  _89
REMARK   39  A    between atoms: _92  and  _94
REMARK   40  A    between atoms: _94  and  _95
REMARK   41  A    between atoms: _94  and  _97
REMARK   42  A    between atoms: _100  and  _102
REMARK   43  A    between atoms: _102  and  _103
REMARK   44  A    between atoms: _102  and  _105
REMARK   45  A    between atoms: _105  and  _106
REMARK   46  A    between atoms: _106  and  _107
REMARK   47  A    between atoms: _109  and  _111
REMARK   48  A    between atoms: _111  and  _112
REMARK   49  A    between atoms: _111  and  _114
REMARK   50  A    between atoms: _114  and  _115
REMARK   51  A    between atoms: _118  and  _120
REMARK   52  A    between atoms: _120  and  _121
REMARK   53  A    between atoms: _123  and  _125
REMARK   54  A    between atoms: _125  and  _126
REMARK   55  A    between atoms: _128  and  _130
REMARK   56  A    between atoms: _130  and  _131
REMARK   57  A    between atoms: _130  and  _133
REMARK   58  A    between atoms: _133  and  _134
REMARK   59  A    between atoms: _137  and  _139
REMARK   60  A    between atoms: _139  and  _140
REMARK   61  A    between atoms: _142  and  _144
REMARK   62  A    between atoms: _144  and  _145
REMARK   63  A    between atoms: _147  and  _149
REMARK   64  A    between atoms: _149  and  _150
REMARK   65  A    between atoms: _149  and  _152
REMARK   66  A    between atoms: _152  and  _153
REMARK   67  A    between atoms: _159  and  _161
REMARK   68  A    between atoms: _161  and  _162
REMARK   69  A    between atoms: _161  and  _164
REMARK   70  A    between atoms: _164  and  _165
REMARK   71  A    between atoms: _168  and  _170
REMARK   72  A    between atoms: _170  and  _171
REMARK   73  A    between atoms: _170  and  _173
REMARK   74  A    between atoms: _173  and  _174
REMARK   75  A    between atoms: _177  and  _179
REMARK   76  A    between atoms: _179  and  _180
REMARK   77  A    between atoms: _179  and  _182
REMARK   78  A    between atoms: _182  and  _183
REMARK   79  A    between atoms: _187  and  _188
REMARK   80  A    between atoms: _193  and  _195
REMARK   81  A    between atoms: _195  and  _196
REMARK   82  A    between atoms: _195  and  _198
REMARK   83  A    between atoms: _201  and  _203
REMARK   84  A    between atoms: _203  and  _204
REMARK   85  A    between atoms: _203  and  _206
REMARK   86  A    between atoms: _206  and  _207
REMARK   87  A    between atoms: _212  and  _214
REMARK   88  A    between atoms: _214  and  _215
REMARK   89  A    between atoms: _214  and  _217
REMARK   90  A    between atoms: _217  and  _218
REMARK   91  A    between atoms: _221  and  _223
REMARK   92  A    between atoms: _223  and  _224
REMARK   93  A    between atoms: _223  and  _226
REMARK   94  A    between atoms: _226  and  _227
REMARK   95  A    between atoms: _230  and  _232
REMARK   96  A    between atoms: _232  and  _233
REMARK   97  A    between atoms: _235  and  _237
REMARK   98  A    between atoms: _237  and  _238
REMARK   99  A    between atoms: _237  and  _240
REMARK  100  A    between atoms: _240  and  _241
REMARK  101  A    between atoms: _241  and  _242
REMARK  102  A    between atoms: _242  and  _243
REMARK  103  A    between atoms: _252  and  _254
REMARK  104  A    between atoms: _254  and  _255
REMARK  105  A    between atoms: _254  and  _257
REMARK  106  A    between atoms: _257  and  _258
REMARK  107  A    between atoms: _258  and  _259
REMARK  108  A    between atoms: _259  and  _260
REMARK  109  A    between atoms: _269  and  _271
REMARK  110  A    between atoms: _271  and  _272
REMARK  111  A    between atoms: _271  and  _274
REMARK  112  A    between atoms: _274  and  _275
REMARK  113  A    between atoms: _278  and  _280
REMARK  114  A    between atoms: _280  and  _281
REMARK  115  A    between atoms: _280  and  _283
REMARK  116  A    between atoms: _283  and  _284
REMARK  117  A    between atoms: _287  and  _289
REMARK  118  A    between atoms: _289  and  _290
REMARK  119  A    between atoms: _289  and  _292
REMARK  120  A    between atoms: _292  and  _293
REMARK  121  A    between atoms: _296  and  _298
REMARK  122  A    between atoms: _298  and  _299
REMARK  123  A    between atoms: _298  and  _301
REMARK  124  A    between atoms: _301  and  _302
REMARK  125  A    between atoms: _305  and  _307
REMARK  126  A    between atoms: _307  and  _308
REMARK  127  A    between atoms: _310  and  _312
REMARK  128  A    between atoms: _312  and  _313
REMARK  129  A    between atoms: _316  and  _318
REMARK  130  A    between atoms: _318  and  _319
REMARK  131  A    between atoms: _318  and  _321
REMARK  132  A    between atoms: _321  and  _322
REMARK  133  A    between atoms: _325  and  _327
REMARK  134  A    between atoms: _327  and  _328
REMARK  135  A    between atoms: _327  and  _330
REMARK  136  A    between atoms: _330  and  _331
REMARK  137  A    between atoms: _334  and  _336
REMARK  138  A    between atoms: _336  and  _337
REMARK  139  A    between atoms: _336  and  _339
REMARK  140  A    between atoms: _339  and  _340
REMARK  141  A    between atoms: _343  and  _345
REMARK  142  A    between atoms: _345  and  _346
REMARK  143  A    between atoms: _345  and  _348
REMARK  144  A    between atoms: _351  and  _353
REMARK  145  A    between atoms: _353  and  _354
REMARK  146  A    between atoms: _353  and  _356
REMARK  147  A    between atoms: _356  and  _357
REMARK  148  A    between atoms: _357  and  _358
REMARK  149  A    between atoms: _358  and  _359
REMARK  150  A    between atoms: _359  and  _360
REMARK  151  A    between atoms: _364  and  _366
REMARK  152  A    between atoms: _366  and  _367
REMARK  153  A    between atoms: _366  and  _369
REMARK  154  A    between atoms: _369  and  _370
REMARK  155  A    between atoms: _370  and  _371
REMARK  156  A    between atoms: _373  and  _375
REMARK  157  A    between atoms: _375  and  _376
REMARK  158  A    between atoms: _375  and  _378
REMARK  159  A    between atoms: _378  and  _379
REMARK  160  A    between atoms: _382  and  _384
REMARK  161  A    between atoms: _384  and  _385
REMARK  162  A    between atoms: _387  and  _389
REMARK  163  A    between atoms: _389  and  _390
REMARK  164  A    between atoms: _392  and  _394
REMARK  165  A    between atoms: _394  and  _395
REMARK  166  A    between atoms: _394  and  _397
REMARK  167  A    between atoms: _397  and  _398
REMARK  168  A    between atoms: _401  and  _403
REMARK  169  A    between atoms: _403  and  _404
REMARK  170  A    between atoms: _406  and  _408
REMARK  171  A    between atoms: _408  and  _409
REMARK  172  A    between atoms: _411  and  _413
REMARK  173  A    between atoms: _413  and  _414
REMARK  174  A    between atoms: _413  and  _416
REMARK  175  A    between atoms: _416  and  _417
REMARK  176  A    between atoms: _423  and  _425
REMARK  177  A    between atoms: _425  and  _426
REMARK  178  A    between atoms: _425  and  _428
REMARK  179  A    between atoms: _428  and  _429
REMARK  180  A    between atoms: _432  and  _434
REMARK  181  A    between atoms: _434  and  _435
REMARK  182  A    between atoms: _434  and  _437
REMARK  183  A    between atoms: _440  and  _442
REMARK  184  A    between atoms: _442  and  _443
REMARK  185  A    between atoms: _442  and  _445
REMARK  186  A    between atoms: _445  and  _446
REMARK  187  A    between atoms: _450  and  _451
REMARK  188  A    between atoms: _456  and  _458
REMARK  189  A    between atoms: _458  and  _459
REMARK  190  A    between atoms: _458  and  _461
REMARK  191  A    between atoms: _461  and  _462
REMARK  192  A    between atoms: _466  and  _467
REMARK  193  A    between atoms: _472  and  _474
REMARK  194  A    between atoms: _474  and  _475
REMARK  195  A    between atoms: _474  and  _477
REMARK  196  A    between atoms: _480  and  _482
REMARK  197  A    between atoms: _482  and  _483
REMARK  198  A    between atoms: _482  and  _485
REMARK  199  A    between atoms: _485  and  _486
REMARK  200  A    between atoms: _491  and  _493
REMARK  201  A    between atoms: _493  and  _494
REMARK  202  A    between atoms: _493  and  _496
REMARK  203  A    between atoms: _496  and  _497
REMARK  204  A    between atoms: _500  and  _502
REMARK  205  A    between atoms: _502  and  _503
REMARK  206  A    between atoms: _502  and  _505
REMARK  207  A    between atoms: _505  and  _506
REMARK  208  A    between atoms: _509  and  _511
REMARK  209  A    between atoms: _511  and  _512
REMARK  210  A    between atoms: _514  and  _516
REMARK  211  A    between atoms: _516  and  _517
REMARK  212  A    between atoms: _516  and  _519
REMARK  213  A    between atoms: _519  and  _520
REMARK  214  A    between atoms: _520  and  _521
REMARK  215  A    between atoms: _521  and  _522
REMARK  216  A    between atoms: _531  and  _533
REMARK  217  A    between atoms: _533  and  _534
REMARK  218  A    between atoms: _533  and  _536
REMARK  219  A    between atoms: _536  and  _537
REMARK                            x       y       z     vdW  Elec       q    Type
REMARK                         _______ _______ _______ _____ _____    ______ ____
ROOT
ATOM      1  NE  ARG A   1      19.434  20.012  10.696  0.00  0.00    -0.265 N 
ATOM      2  HE  ARG A   1      20.324  20.370  11.097  0.00  0.00    +0.259 HD
ATOM      3  CZ  ARG A   1      19.273  20.100   9.379  0.00  0.00    +0.342 C 
ATOM      4  NH2 ARG A   1      18.152  19.683   8.793  0.00  0.00    -0.292 N 
ATOM      5 HH21 ARG A   1      17.384  19.280   9.367  0.00  0.00    +0.255 HD
ATOM      6 HH22 ARG A   1      18.045  19.760   7.761  0.00  0.00    +0.255 HD
ATOM      7  NH1 ARG A   1      20.236  20.622   8.631  0.00  0.00    -0.292 N 
ATOM      8 HH11 ARG A   1      21.113  20.961   9.075  0.00  0.00    +0.255 HD
ATOM      9 HH12 ARG A   1      20.114  20.692   7.601  0.00  0.00    +0.255 HD
ENDROOT
BRANCH   1  10
ATOM     10  CD  ARG A   1      18.453  19.450  11.621  0.00  0.00    +0.174 C 
BRANCH  10  11
ATOM     11  CG  ARG A   1      19.107  19.097  12.932  0.00  0.00    +0.045 C 
BRANCH  11  12
ATOM     12  CB  ARG A   1      18.115  18.598  13.963  0.00  0.00    +0.029 C 
BRANCH  12  13
ATOM     13  CA  ARG A   1      18.782  18.034  15.217  0.00  0.00    +0.133 C 
BRANCH  13  14
ATOM     14  N   ARG A   1      19.467  16.784  14.900  0.00  0.00    -0.239 NA
ATOM     15  H   ARG A   1      19.434  16.415  13.928  0.00  0.00    +0.142 HD
ENDBRANCH  13  14
BRANCH  13  16
ATOM     16  C   ARG A   1      17.736  17.748  16.292  0.00  0.00    +0.224 C 
ATOM     17  O   ARG A   1      17.027  16.752  16.202  0.00  0.00    -0.287 OA
ENDBRANCH  13  16
ENDBRANCH  12  13
ENDBRANCH  11  12
ENDBRANCH  10  11
ENDBRANCH   1  10
TORSDOF 6
REMARK  Name = ../refined-set-2016/2qi3/2qi3_pocket.pdb
REMARK  219 active torsions:
REMARK  status: ('A' for Active; 'I' for Inactive)
REMARK    1  A    between atoms: _1  and  _3
REMARK    2  A    between atoms: _3  and  _4
REMARK    3  A    between atoms: _3  and  _6
REMARK    4  A    between atoms: _6  and  _7
REMARK    5  A    between atoms: _7  and  _8
REMARK    6  A    between atoms: _8  and  _9
REMARK    7  A    between atoms: _18  and  _20
REMARK    8  A    between atoms: _20  and  _21
REMARK    9  A    between atoms: _20  and  _23
REMARK   10  A    between atoms: _23  and  _24
REMARK   11  A    between atoms: _27  and  _29
REMARK   12  A    between atoms: _29  and  _30
REMARK   13  A    between atoms: _29  and  _32
REMARK   14  A    between atoms: _32  and  _33
REMARK   15  A    between atoms: _36  and  _38
REMARK   16  A    between atoms: _38  and  _39
REMARK   17  A    between atoms: _38  and  _41
REMARK   18  A    between atoms: _41  and  _42
REMARK   19  A    between atoms: _45  and  _47
REMARK   20  A    between atoms: _47  and  _48
REMARK   21  A    between atoms: _47  and  _50
REMARK   22  A    between atoms: _50  and  _51
REMARK   23  A    between atoms: _54  and  _56
REMARK   24  A    between atoms: _56  and  _57
REMARK   25  A    between atoms: _59  and  _61
REMARK   26  A    between atoms: _61  and  _62
REMARK   27  A    between atoms: _65  and  _67
REMARK   28  A    between atoms: _67  and  _68
REMARK   29  A    between atoms: _67  and  _70
REMARK   30  A    between atoms: _70  and  _71
REMARK   31  A    between atoms: _74  and  _76
REMARK   32  A    between atoms: _76  and  _77
REMARK   33  A    between atoms: _76  and  _79
REMARK   34  A    between atoms: _79  and  _80
REMARK   35  A    between atoms: _83  and  _85
REMARK   36  A    between atoms: _85  and  _86
REMARK   37  A    between atoms: _85  and  _88
REMARK   38  A    between atoms: _88  and  _89
REMARK   39  A    between atoms: _92  and  _94
REMARK   40  A    between atoms: _94  and  _95
REMARK   41  A    between atoms: _94  and  _97
REMARK   42  A    between atoms: _100  and  _102
REMARK   43  A    between atoms: _102  and  _103
REMARK   44  A    between atoms: _102  and  _105
REMARK   45  A    between atoms: _105  and  _106
REMARK   46  A    between atoms: _106  and  _107
REMARK   47  A    between atoms: _109  and  _111
REMARK   48  A    between atoms: _111  and  _112
REMARK   49  A    between atoms: _111  and  _114
REMARK   50  A    between atoms: _114  and  _115
REMARK   51  A    between atoms: _118  and  _120
REMARK   52  A    between atoms: _120  and  _121
REMARK   53  A    between atoms: _123  and  _125
REMARK   54  A    between atoms: _125  and  _126
REMARK   55  A    between atoms: _128  and  _130
REMARK   56  A    between atoms: _130  and  _131
REMARK   57  A    between atoms: _130  and  _133
REMARK   58  A    between atoms: _133  and  _134
REMARK   59  A    between atoms: _137  and  _139
REMARK   60  A    between atoms: _139  and  _140
REMARK   61  A    between atoms: _142  and  _144
REMARK   62  A    between atoms: _144  and  _145
REMARK   63  A    between atoms: _147  and  _149
REMARK   64  A    between atoms: _149  and  _150
REMARK   65  A    between atoms: _149  and  _152
REMARK   66  A    between atoms: _152  and  _153
REMARK   67  A    between atoms: _159  and  _161
REMARK   68  A    between atoms: _161  and  _162
REMARK   69  A    between atoms: _161  and  _164
REMARK   70  A    between atoms: _164  and  _165
REMARK   71  A    between atoms: _168  and  _170
REMARK   72  A    between atoms: _170  and  _171
REMARK   73  A    between atoms: _170  and  _173
REMARK   74  A    between atoms: _173  and  _174
REMARK   75  A    between atoms: _177  and  _179
REMARK   76  A    between atoms: _179  and  _180
REMARK   77  A    between atoms: _179  and  _182
REMARK   78  A    between atoms: _182  and  _183
REMARK   79  A    between atoms: _187  and  _188
REMARK   80  A    between atoms: _193  and  _195
REMARK   81  A    between atoms: _195  and  _196
REMARK   82  A    between atoms: _195  and  _198
REMARK   83  A    between atoms: _201  and  _203
REMARK   84  A    between atoms: _203  and  _204
REMARK   85  A    between atoms: _203  and  _206
REMARK   86  A    between atoms: _206  and  _207
REMARK   87  A    between atoms: _212  and  _214
REMARK   88  A    between atoms: _214  and  _215
REMARK   89  A    between atoms: _214  and  _217
REMARK   90  A    between atoms: _217  and  _218
REMARK   91  A    between atoms: _221  and  _223
REMARK   92  A    between atoms: _223  and  _224
REMARK   93  A    between atoms: _223  and  _226
REMARK   94  A    between atoms: _226  and  _227
REMARK   95  A    between atoms: _230  and  _232
REMARK   96  A    between atoms: _232  and  _233
REMARK   97  A    between atoms: _235  and  _237
REMARK   98  A    between atoms: _237  and  _238
REMARK   99  A    between atoms: _237  and  _240
REMARK  100  A    between atoms: _240  and  _241
REMARK  101  A    between atoms: _241  and  _242
REMARK  102  A    between atoms: _242  and  _243
REMARK  103  A    between atoms: _252  and  _254
REMARK  104  A    between atoms: _254  and  _255
REMARK  105  A    between atoms: _254  and  _257
REMARK  106  A    between atoms: _257  and  _258
REMARK  107  A    between atoms: _258  and  _259
REMARK  108  A    between atoms: _259  and  _260
REMARK  109  A    between atoms: _269  and  _271
REMARK  110  A    between atoms: _271  and  _272
REMARK  111  A    between atoms: _271  and  _274
REMARK  112  A    between atoms: _274  and  _275
REMARK  113  A    between atoms: _278  and  _280
REMARK  114  A    between atoms: _280  and  _281
REMARK  115  A    between atoms: _280  and  _283
REMARK  116  A    between atoms: _283  and  _284
REMARK  117  A    between atoms: _287  and  _289
REMARK  118  A    between atoms: _289  and  _290
REMARK  119  A    between atoms: _289  and  _292
REMARK  120  A    between atoms: _292  and  _293
REMARK  121  A    between atoms: _296  and  _298
REMARK  122  A    between atoms: _298  and  _299
REMARK  123  A    between atoms: _298  and  _301
REMARK  124  A    between atoms: _301  and  _302
REMARK  125  A    between atoms: _305  and  _307
REMARK  126  A    between atoms: _307  and  _308
REMARK  127  A    between atoms: _310  and  _312
REMARK  128  A    between atoms: _312  and  _313
REMARK  129  A    between atoms: _316  and  _318
REMARK  130  A    between atoms: _318  and  _319
REMARK  131  A    between atoms: _318  and  _321
REMARK  132  A    between atoms: _321  and  _322
REMARK  133  A    between atoms: _325  and  _327
REMARK  134  A    between atoms: _327  and  _328
REMARK  135  A    between atoms: _327  and  _330
REMARK  136  A    between atoms: _330  and  _331
REMARK  137  A    between atoms: _334  and  _336
REMARK  138  A    between atoms: _336  and  _337
REMARK  139  A    between atoms: _336  and  _339
REMARK  140  A    between atoms: _339  and  _340
REMARK  141  A    between atoms: _343  and  _345
REMARK  142  A    between atoms: _345  and  _346
REMARK  143  A    between atoms: _345  and  _348
REMARK  144  A    between atoms: _351  and  _353
REMARK  145  A    between atoms: _353  and  _354
REMARK  146  A    between atoms: _353  and  _356
REMARK  147  A    between atoms: _356  and  _357
REMARK  148  A    between atoms: _357  and  _358
REMARK  149  A    between atoms: _358  and  _359
REMARK  150  A    between atoms: _359  and  _360
REMARK  151  A    between atoms: _364  and  _366
REMARK  152  A    between atoms: _366  and  _367
REMARK  153  A    between atoms: _366  and  _369
REMARK  154  A    between atoms: _369  and  _370
REMARK  155  A    between atoms: _370  and  _371
REMARK  156  A    between atoms: _373  and  _375
REMARK  157  A    between atoms: _375  and  _376
REMARK  158  A    between atoms: _375  and  _378
REMARK  159  A    between atoms: _378  and  _379
REMARK  160  A    between atoms: _382  and  _384
REMARK  161  A    between atoms: _384  and  _385
REMARK  162  A    between atoms: _387  and  _389
REMARK  163  A    between atoms: _389  and  _390
REMARK  164  A    between atoms: _392  and  _394
REMARK  165  A    between atoms: _394  and  _395
REMARK  166  A    between atoms: _394  and  _397
REMARK  167  A    between atoms: _397  and  _398
REMARK  168  A    between atoms: _401  and  _403
REMARK  169  A    between atoms: _403  and  _404
REMARK  170  A    between atoms: _406  and  _408
REMARK  171  A    between atoms: _408  and  _409
REMARK  172  A    between atoms: _411  and  _413
REMARK  173  A    between atoms: _413  and  _414
REMARK  174  A    between atoms: _413  and  _416
REMARK  175  A    between atoms: _416  and  _417
REMARK  176  A    between atoms: _423  and  _425
REMARK  177  A    between atoms: _425  and  _426
REMARK  178  A    between atoms: _425  and  _428
REMARK  179  A    between atoms: _428  and  _429
REMARK  180  A    between atoms: _432  and  _434
REMARK  181  A    between atoms: _434  and  _435
REMARK  182  A    between atoms: _434  and  _437
REMARK  183  A    between atoms: _440  and  _442
REMARK  184  A    between atoms: _442  and  _443
REMARK  185  A    between atoms: _442  and  _445
REMARK  186  A    between atoms: _445  and  _446
REMARK  187  A    between atoms: _450  and  _451
REMARK  188  A    between atoms: _456  and  _458
REMARK  189  A    between atoms: _458  and  _459
REMARK  190  A    between atoms: _458  and  _461
REMARK  191  A    between atoms: _461  and  _462
REMARK  192  A    between atoms: _466  and  _467
REMARK  193  A    between atoms: _472  and  _474
REMARK  194  A    between atoms: _474  and  _475
REMARK  195  A    between atoms: _474  and  _477
REMARK  196  A    between atoms: _480  and  _482
REMARK  197  A    between atoms: _482  and  _483
REMARK  198  A    between atoms: _482  and  _485
REMARK  199  A    between atoms: _485  and  _486
REMARK  200  A    between atoms: _491  and  _493
REMARK  201  A    between atoms: _493  and  _494
REMARK  202  A    between atoms: _493  and  _496
REMARK  203  A    between atoms: _496  and  _497
REMARK  204  A    between atoms: _500  and  _502
REMARK  205  A    between atoms: _502  and  _503
REMARK  206  A    between atoms: _502  and  _505
REMARK  207  A    between atoms: _505  and  _506
REMARK  208  A    between atoms: _509  and  _511
REMARK  209  A    between atoms: _511  and  _512
REMARK  210  A    between atoms: _514  and  _516
REMARK  211  A    between atoms: _516  and  _517
REMARK  212  A    between atoms: _516  and  _519
REMARK  213  A    between atoms: _519  and  _520
REMARK  214  A    between atoms: _520  and  _521
REMARK  215  A    between atoms: _521  and  _522
REMARK  216  A    between atoms: _531  and  _533
REMARK  217  A    between atoms: _533  and  _534
REMARK  218  A    between atoms: _533  and  _536
REMARK  219  A    between atoms: _536  and  _537
REMARK                            x       y       z     vdW  Elec       q    Type
REMARK                         _______ _______ _______ _____ _____    ______ ____
ROOT
ATOM      1  C   GLY A   5      19.525  30.899  19.997  0.00  0.00    +0.243 C 
ATOM      2  N   ALA A   6      18.243  30.590  20.213  0.00  0.00    -0.297 N 
ATOM      3  H   ALA A   6      18.032  29.684  20.678  0.00  0.00    +0.150 HD
ATOM      4  O   GLY A   5      19.898  31.969  19.526  0.00  0.00    -0.273 OA
ENDROOT
BRANCH   2   5
ATOM      5  CA  ALA A   6      17.119  31.443  19.838  0.00  0.00    +0.149 C 
ATOM      6  CB  ALA A   6      16.055  30.608  19.154  0.00  0.00    +0.031 C 
BRANCH   5   7
ATOM      7  C   ALA A   6      16.517  32.132  21.062  0.00  0.00    +0.241 C 
ATOM      8  O   ALA A   6      15.973  31.462  21.940  0.00  0.00    -0.273 OA
ATOM      9  N   ASP A   7      16.594  33.467  21.107  0.00  0.00    -0.297 N 
ATOM     10  H   ASP A   7      17.088  33.970  20.342  0.00  0.00    +0.150 HD
BRANCH   9  11
ATOM     11  CA  ASP A   7      16.001  34.245  22.206  0.00  0.00    +0.160 C 
BRANCH  11  12
ATOM     12  C   ASP A   7      14.492  34.016  22.246  0.00  0.00    +0.241 C 
ATOM     13  O   ASP A   7      13.900  33.803  23.316  0.00  0.00    -0.273 OA
ATOM     14  N   ASP A   8      13.900  34.060  21.054  0.00  0.00    -0.297 N 
ATOM     15  H   ASP A   8      14.507  34.102  20.211  0.00  0.00    +0.150 HD
BRANCH  14  16
ATOM     16  CA  ASP A   8      12.460  34.053  20.856  0.00  0.00    +0.160 C 
BRANCH  16  17
ATOM     17  C   ASP A   8      12.047  32.849  20.022  0.00  0.00    +0.241 C 
ATOM     18  N   THR A   9      10.755  32.545  20.068  0.00  0.00    -0.295 N 
ATOM     19  H   THR A   9      10.131  33.129  20.661  0.00  0.00    +0.150 HD
ATOM     20  O   ASP A   8      12.873  32.209  19.372  0.00  0.00    -0.273 OA
BRANCH  18  21
ATOM     21  CA  THR A   9      10.167  31.435  19.330  0.00  0.00    +0.176 C 
BRANCH  21  22
ATOM     22  C   THR A   9       9.711  31.949  17.966  0.00  0.00    +0.243 C 
ATOM     23  O   THR A   9       9.009  32.959  17.877  0.00  0.00    -0.273 OA
ATOM     24  N   VAL A  10      10.120  31.248  16.914  0.00  0.00    -0.298 N 
ATOM     25  H   VAL A  10      10.664  30.376  17.073  0.00  0.00    +0.150 HD
BRANCH  24  26
ATOM     26  CA  VAL A  10       9.834  31.657  15.550  0.00  0.00    +0.137 C 
BRANCH  26  27
ATOM     27  CB  VAL A  10      11.112  32.115  14.798  0.00  0.00    +0.026 C 
ATOM     28  CG2 VAL A  10      11.958  33.049  15.672  0.00  0.00    +0.002 C 
ATOM     29  CG1 VAL A  10      10.748  32.807  13.488  0.00  0.00    +0.002 C 
ENDBRANCH  26  27
BRANCH  26  30
ATOM     30  C   VAL A  10       9.189  30.499  14.809  0.00  0.00    +0.227 C 
ATOM     31  O   VAL A  10       9.771  29.421  14.688  0.00  0.00    -0.286 OA
ENDBRANCH  26  30
ENDBRANCH  24  26
ENDBRANCH  21  22
BRANCH  21  32
ATOM     32  CB  THR A   9       9.000  30.824  20.132  0.00  0.00    +0.137 C 
ATOM     33  CG2 THR A   9       8.226  29.819  19.321  0.00  0.00    +0.034 C 
BRANCH  32  34
ATOM     34  OG1 THR A   9       9.530  30.177  21.292  0.00  0.00    -0.382 OA
ATOM     35  HG1 THR A   9      10.010  30.841  21.848  0.00  0.00    +0.210 HD
ENDBRANCH  32  34
ENDBRANCH  21  32
ENDBRANCH  18  21
ENDBRANCH  16  17
BRANCH  16  36
ATOM     36  CB  ASP A   8      12.022  35.328  20.131  0.00  0.00    +0.143 C 
BRANCH  36  37
ATOM     37  CG  ASP A   8      12.450  36.594  20.850  0.00  0.00    +0.367 C 
ATOM     38  OD2 ASP A   8      12.388  36.643  22.100  0.00  0.00    -0.246 OA
ATOM     39  OD1 ASP A   8      12.831  37.553  20.156  0.00  0.00    -0.246 OA
ENDBRANCH  36  37
ENDBRANCH  16  36
ENDBRANCH  14  16
ENDBRANCH  11  12
BRANCH  11  40
ATOM     40  CB  ASP A   7      16.221  35.748  22.024  0.00  0.00    +0.143 C 
BRANCH  40  41
ATOM     41  CG  ASP A   7      17.676  36.167  22.094  0.00  0.00    +0.367 C 
ATOM     42  OD2 ASP A   7      18.504  35.442  22.651  0.00  0.00    -0.246 OA
ATOM     43  OD1 ASP A   7      17.982  37.263  21.586  0.00  0.00    -0.246 OA
ENDBRANCH  40  41
ENDBRANCH  11  40
ENDBRANCH   9  11
ENDBRANCH   5   7
ENDBRANCH   2   5
BRANCH   1  44
ATOM     44  CA  GLY A   5      20.549  29.853  20.398  0.00  0.00    +0.176 C 
BRANCH  44  47
ATOM     45  C   THR A   4      19.733  28.619  22.356  0.00  0.00    +0.243 C 
ATOM     46  O   THR A   4      19.997  29.540  23.129  0.00  0.00    -0.273 OA
ATOM     47  N   GLY A   5      20.001  28.663  21.045  0.00  0.00    -0.295 N 
ATOM     48  H   GLY A   5      19.812  27.820  20.466  0.00  0.00    +0.150 HD
BRANCH  45  49
ATOM     49  CA  THR A   4      19.059  27.354  22.890  0.00  0.00    +0.176 C 
BRANCH  49  51
ATOM     50  C   ASP A   3      17.398  26.905  21.158  0.00  0.00    +0.241 C 
ATOM     51  N   THR A   4      18.484  26.537  21.825  0.00  0.00    -0.295 N 
ATOM     52  H   THR A   4      18.942  25.636  21.581  0.00  0.00    +0.150 HD
ATOM     53  O   ASP A   3      16.823  27.985  21.351  0.00  0.00    -0.273 OA
BRANCH  50  54
ATOM     54  CA  ASP A   3      16.930  25.927  20.075  0.00  0.00    +0.160 C 
BRANCH  54  56
ATOM     55  C   LEU A   2      15.888  23.781  20.564  0.00  0.00    +0.241 C 
ATOM     56  N   ASP A   3      15.805  25.111  20.498  0.00  0.00    -0.297 N 
ATOM     57  H   ASP A   3      14.911  25.576  20.756  0.00  0.00    +0.150 HD
ATOM     58  O   LEU A   2      16.960  23.167  20.497  0.00  0.00    -0.273 OA
BRANCH  55  59
ATOM     59  CA  LEU A   2      14.560  23.020  20.688  0.00  0.00    +0.149 C 
BRANCH  59  61
ATOM     60  C   LEU A   1      13.783  23.263  18.404  0.00  0.00    +0.238 C 
ATOM     61  N   LEU A   2      14.280  22.480  19.356  0.00  0.00    -0.297 N 
ATOM     62  H   LEU A   2      14.471  21.478  19.154  0.00  0.00    +0.150 HD
ATOM     63  O   LEU A   1      13.311  24.376  18.644  0.00  0.00    -0.274 OA
BRANCH  60  64
ATOM     64  CA  LEU A   1      13.836  22.740  16.979  0.00  0.00    +0.145 C 
BRANCH  64  65
ATOM     65  N   LEU A   1      12.538  22.855  16.318  0.00  0.00    -0.238 NA
ATOM     66  H   LEU A   1      12.386  23.639  15.652  0.00  0.00    +0.142 HD
ENDBRANCH  64  65
BRANCH  64  67
ATOM     67  CB  LEU A   1      14.890  23.567  16.236  0.00  0.00    +0.026 C 
BRANCH  67  68
ATOM     68  CG  LEU A   1      15.555  23.047  14.978  0.00  0.00    +0.002 C 
ATOM     69  CD2 LEU A   1      16.300  21.751  15.252  0.00  0.00    +0.000 C 
ATOM     70  CD1 LEU A   1      16.503  24.123  14.441  0.00  0.00    +0.000 C 
ENDBRANCH  67  68
ENDBRANCH  64  67
ENDBRANCH  60  64
ENDBRANCH  59  61
BRANCH  59  71
ATOM     71  CB  LEU A   2      14.642  21.916  21.734  0.00  0.00    +0.029 C 
BRANCH  71  72
ATOM     72  CG  LEU A   2      13.403  21.031  21.878  0.00  0.00    +0.002 C 
ATOM     73  CD2 LEU A   2      13.629  19.971  22.924  0.00  0.00    +0.000 C 
ATOM     74  CD1 LEU A   2      12.176  21.869  22.220  0.00  0.00    +0.000 C 
ENDBRANCH  71  72
ENDBRANCH  59  71
ENDBRANCH  55  59
ENDBRANCH  54  56
BRANCH  54  75
ATOM     75  CB  ASP A   3      16.577  26.677  18.785  0.00  0.00    +0.143 C 
BRANCH  75  76
ATOM     76  CG  ASP A   3      17.787  27.370  18.152  0.00  0.00    +0.367 C 
ATOM     77  OD2 ASP A   3      18.889  27.327  18.740  0.00  0.00    -0.246 OA
ATOM     78  OD1 ASP A   3      17.649  27.924  17.032  0.00  0.00    -0.246 OA
ENDBRANCH  75  76
ENDBRANCH  54  75
ENDBRANCH  50  54
ENDBRANCH  49  51
BRANCH  49  79
ATOM     79  CB  THR A   4      20.078  26.553  23.706  0.00  0.00    +0.137 C 
ATOM     80  CG2 THR A   4      19.414  25.337  24.342  0.00  0.00    +0.034 C 
BRANCH  79  81
ATOM     81  OG1 THR A   4      21.156  26.132  22.853  0.00  0.00    -0.382 OA
ATOM     82  HG1 THR A   4      21.598  26.928  22.464  0.00  0.00    +0.210 HD
ENDBRANCH  79  81
ENDBRANCH  49  79
ENDBRANCH  45  49
ENDBRANCH  44  47
ENDBRANCH   1  44
TORSDOF 35
REMARK  Name = ../refined-set-2016/2qi3/2qi3_pocket.pdb
REMARK  219 active torsions:
REMARK  status: ('A' for Active; 'I' for Inactive)
REMARK    1  A    between atoms: _1  and  _3
REMARK    2  A    between atoms: _3  and  _4
REMARK    3  A    between atoms: _3  and  _6
REMARK    4  A    between atoms: _6  and  _7
REMARK    5  A    between atoms: _7  and  _8
REMARK    6  A    between atoms: _8  and  _9
REMARK    7  A    between atoms: _18  and  _20
REMARK    8  A    between atoms: _20  and  _21
REMARK    9  A    between atoms: _20  and  _23
REMARK   10  A    between atoms: _23  and  _24
REMARK   11  A    between atoms: _27  and  _29
REMARK   12  A    between atoms: _29  and  _30
REMARK   13  A    between atoms: _29  and  _32
REMARK   14  A    between atoms: _32  and  _33
REMARK   15  A    between atoms: _36  and  _38
REMARK   16  A    between atoms: _38  and  _39
REMARK   17  A    between atoms: _38  and  _41
REMARK   18  A    between atoms: _41  and  _42
REMARK   19  A    between atoms: _45  and  _47
REMARK   20  A    between atoms: _47  and  _48
REMARK   21  A    between atoms: _47  and  _50
REMARK   22  A    between atoms: _50  and  _51
REMARK   23  A    between atoms: _54  and  _56
REMARK   24  A    between atoms: _56  and  _57
REMARK   25  A    between atoms: _59  and  _61
REMARK   26  A    between atoms: _61  and  _62
REMARK   27  A    between atoms: _65  and  _67
REMARK   28  A    between atoms: _67  and  _68
REMARK   29  A    between atoms: _67  and  _70
REMARK   30  A    between atoms: _70  and  _71
REMARK   31  A    between atoms: _74  and  _76
REMARK   32  A    between atoms: _76  and  _77
REMARK   33  A    between atoms: _76  and  _79
REMARK   34  A    between atoms: _79  and  _80
REMARK   35  A    between atoms: _83  and  _85
REMARK   36  A    between atoms: _85  and  _86
REMARK   37  A    between atoms: _85  and  _88
REMARK   38  A    between atoms: _88  and  _89
REMARK   39  A    between atoms: _92  and  _94
REMARK   40  A    between atoms: _94  and  _95
REMARK   41  A    between atoms: _94  and  _97
REMARK   42  A    between atoms: _100  and  _102
REMARK   43  A    between atoms: _102  and  _103
REMARK   44  A    between atoms: _102  and  _105
REMARK   45  A    between atoms: _105  and  _106
REMARK   46  A    between atoms: _106  and  _107
REMARK   47  A    between atoms: _109  and  _111
REMARK   48  A    between atoms: _111  and  _112
REMARK   49  A    between atoms: _111  and  _114
REMARK   50  A    between atoms: _114  and  _115
REMARK   51  A    between atoms: _118  and  _120
REMARK   52  A    between atoms: _120  and  _121
REMARK   53  A    between atoms: _123  and  _125
REMARK   54  A    between atoms: _125  and  _126
REMARK   55  A    between atoms: _128  and  _130
REMARK   56  A    between atoms: _130  and  _131
REMARK   57  A    between atoms: _130  and  _133
REMARK   58  A    between atoms: _133  and  _134
REMARK   59  A    between atoms: _137  and  _139
REMARK   60  A    between atoms: _139  and  _140
REMARK   61  A    between atoms: _142  and  _144
REMARK   62  A    between atoms: _144  and  _145
REMARK   63  A    between atoms: _147  and  _149
REMARK   64  A    between atoms: _149  and  _150
REMARK   65  A    between atoms: _149  and  _152
REMARK   66  A    between atoms: _152  and  _153
REMARK   67  A    between atoms: _159  and  _161
REMARK   68  A    between atoms: _161  and  _162
REMARK   69  A    between atoms: _161  and  _164
REMARK   70  A    between atoms: _164  and  _165
REMARK   71  A    between atoms: _168  and  _170
REMARK   72  A    between atoms: _170  and  _171
REMARK   73  A    between atoms: _170  and  _173
REMARK   74  A    between atoms: _173  and  _174
REMARK   75  A    between atoms: _177  and  _179
REMARK   76  A    between atoms: _179  and  _180
REMARK   77  A    between atoms: _179  and  _182
REMARK   78  A    between atoms: _182  and  _183
REMARK   79  A    between atoms: _187  and  _188
REMARK   80  A    between atoms: _193  and  _195
REMARK   81  A    between atoms: _195  and  _196
REMARK   82  A    between atoms: _195  and  _198
REMARK   83  A    between atoms: _201  and  _203
REMARK   84  A    between atoms: _203  and  _204
REMARK   85  A    between atoms: _203  and  _206
REMARK   86  A    between atoms: _206  and  _207
REMARK   87  A    between atoms: _212  and  _214
REMARK   88  A    between atoms: _214  and  _215
REMARK   89  A    between atoms: _214  and  _217
REMARK   90  A    between atoms: _217  and  _218
REMARK   91  A    between atoms: _221  and  _223
REMARK   92  A    between atoms: _223  and  _224
REMARK   93  A    between atoms: _223  and  _226
REMARK   94  A    between atoms: _226  and  _227
REMARK   95  A    between atoms: _230  and  _232
REMARK   96  A    between atoms: _232  and  _233
REMARK   97  A    between atoms: _235  and  _237
REMARK   98  A    between atoms: _237  and  _238
REMARK   99  A    between atoms: _237  and  _240
REMARK  100  A    between atoms: _240  and  _241
REMARK  101  A    between atoms: _241  and  _242
REMARK  102  A    between atoms: _242  and  _243
REMARK  103  A    between atoms: _252  and  _254
REMARK  104  A    between atoms: _254  and  _255
REMARK  105  A    between atoms: _254  and  _257
REMARK  106  A    between atoms: _257  and  _258
REMARK  107  A    between atoms: _258  and  _259
REMARK  108  A    between atoms: _259  and  _260
REMARK  109  A    between atoms: _269  and  _271
REMARK  110  A    between atoms: _271  and  _272
REMARK  111  A    between atoms: _271  and  _274
REMARK  112  A    between atoms: _274  and  _275
REMARK  113  A    between atoms: _278  and  _280
REMARK  114  A    between atoms: _280  and  _281
REMARK  115  A    between atoms: _280  and  _283
REMARK  116  A    between atoms: _283  and  _284
REMARK  117  A    between atoms: _287  and  _289
REMARK  118  A    between atoms: _289  and  _290
REMARK  119  A    between atoms: _289  and  _292
REMARK  120  A    between atoms: _292  and  _293
REMARK  121  A    between atoms: _296  and  _298
REMARK  122  A    between atoms: _298  and  _299
REMARK  123  A    between atoms: _298  and  _301
REMARK  124  A    between atoms: _301  and  _302
REMARK  125  A    between atoms: _305  and  _307
REMARK  126  A    between atoms: _307  and  _308
REMARK  127  A    between atoms: _310  and  _312
REMARK  128  A    between atoms: _312  and  _313
REMARK  129  A    between atoms: _316  and  _318
REMARK  130  A    between atoms: _318  and  _319
REMARK  131  A    between atoms: _318  and  _321
REMARK  132  A    between atoms: _321  and  _322
REMARK  133  A    between atoms: _325  and  _327
REMARK  134  A    between atoms: _327  and  _328
REMARK  135  A    between atoms: _327  and  _330
REMARK  136  A    between atoms: _330  and  _331
REMARK  137  A    between atoms: _334  and  _336
REMARK  138  A    between atoms: _336  and  _337
REMARK  139  A    between atoms: _336  and  _339
REMARK  140  A    between atoms: _339  and  _340
REMARK  141  A    between atoms: _343  and  _345
REMARK  142  A    between atoms: _345  and  _346
REMARK  143  A    between atoms: _345  and  _348
REMARK  144  A    between atoms: _351  and  _353
REMARK  145  A    between atoms: _353  and  _354
REMARK  146  A    between atoms: _353  and  _356
REMARK  147  A    between atoms: _356  and  _357
REMARK  148  A    between atoms: _357  and  _358
REMARK  149  A    between atoms: _358  and  _359
REMARK  150  A    between atoms: _359  and  _360
REMARK  151  A    between atoms: _364  and  _366
REMARK  152  A    between atoms: _366  and  _367
REMARK  153  A    between atoms: _366  and  _369
REMARK  154  A    between atoms: _369  and  _370
REMARK  155  A    between atoms: _370  and  _371
REMARK  156  A    between atoms: _373  and  _375
REMARK  157  A    between atoms: _375  and  _376
REMARK  158  A    between atoms: _375  and  _378
REMARK  159  A    between atoms: _378  and  _379
REMARK  160  A    between atoms: _382  and  _384
REMARK  161  A    between atoms: _384  and  _385
REMARK  162  A    between atoms: _387  and  _389
REMARK  163  A    between atoms: _389  and  _390
REMARK  164  A    between atoms: _392  and  _394
REMARK  165  A    between atoms: _394  and  _395
REMARK  166  A    between atoms: _394  and  _397
REMARK  167  A    between atoms: _397  and  _398
REMARK  168  A    between atoms: _401  and  _403
REMARK  169  A    between atoms: _403  and  _404
REMARK  170  A    between atoms: _406  and  _408
REMARK  171  A    between atoms: _408  and  _409
REMARK  172  A    between atoms: _411  and  _413
REMARK  173  A    between atoms: _413  and  _414
REMARK  174  A    between atoms: _413  and  _416
REMARK  175  A    between atoms: _416  and  _417
REMARK  176  A    between atoms: _423  and  _425
REMARK  177  A    between atoms: _425  and  _426
REMARK  178  A    between atoms: _425  and  _428
REMARK  179  A    between atoms: _428  and  _429
REMARK  180  A    between atoms: _432  and  _434
REMARK  181  A    between atoms: _434  and  _435
REMARK  182  A    between atoms: _434  and  _437
REMARK  183  A    between atoms: _440  and  _442
REMARK  184  A    between atoms: _442  and  _443
REMARK  185  A    between atoms: _442  and  _445
REMARK  186  A    between atoms: _445  and  _446
REMARK  187  A    between atoms: _450  and  _451
REMARK  188  A    between atoms: _456  and  _458
REMARK  189  A    between atoms: _458  and  _459
REMARK  190  A    between atoms: _458  and  _461
REMARK  191  A    between atoms: _461  and  _462
REMARK  192  A    between atoms: _466  and  _467
REMARK  193  A    between atoms: _472  and  _474
REMARK  194  A    between atoms: _474  and  _475
REMARK  195  A    between atoms: _474  and  _477
REMARK  196  A    between atoms: _480  and  _482
REMARK  197  A    between atoms: _482  and  _483
REMARK  198  A    between atoms: _482  and  _485
REMARK  199  A    between atoms: _485  and  _486
REMARK  200  A    between atoms: _491  and  _493
REMARK  201  A    between atoms: _493  and  _494
REMARK  202  A    between atoms: _493  and  _496
REMARK  203  A    between atoms: _496  and  _497
REMARK  204  A    between atoms: _500  and  _502
REMARK  205  A    between atoms: _502  and  _503
REMARK  206  A    between atoms: _502  and  _505
REMARK  207  A    between atoms: _505  and  _506
REMARK  208  A    between atoms: _509  and  _511
REMARK  209  A    between atoms: _511  and  _512
REMARK  210  A    between atoms: _514  and  _516
REMARK  211  A    between atoms: _516  and  _517
REMARK  212  A    between atoms: _516  and  _519
REMARK  213  A    between atoms: _519  and  _520
REMARK  214  A    between atoms: _520  and  _521
REMARK  215  A    between atoms: _521  and  _522
REMARK  216  A    between atoms: _531  and  _533
REMARK  217  A    between atoms: _533  and  _534
REMARK  218  A    between atoms: _533  and  _536
REMARK  219  A    between atoms: _536  and  _537
REMARK                            x       y       z     vdW  Elec       q    Type
REMARK                         _______ _______ _______ _____ _____    ______ ____
ROOT
ATOM      1  C   GLY A   5      21.311  35.735  11.160  0.00  0.00    +0.243 C 
ATOM      2  N   ILE A   6      21.811  34.542  10.862  0.00  0.00    -0.297 N 
ATOM      3  H   ILE A   6      21.504  33.705  11.398  0.00  0.00    +0.150 HD
ATOM      4  O   GLY A   5      21.728  36.777  10.658  0.00  0.00    -0.273 OA
ENDROOT
BRANCH   2   5
ATOM      5  CA  ILE A   6      22.781  34.396   9.796  0.00  0.00    +0.149 C 
BRANCH   5   6
ATOM      6  C   ILE A   6      22.094  34.813   8.504  0.00  0.00    +0.241 C 
ATOM      7  O   ILE A   6      20.958  34.418   8.232  0.00  0.00    -0.273 OA
ATOM      8  N   GLY A   7      22.774  35.655   7.736  0.00  0.00    -0.295 N 
ATOM      9  H   GLY A   7      23.699  36.004   8.059  0.00  0.00    +0.150 HD
BRANCH   8  10
ATOM     10  CA  GLY A   7      22.254  36.101   6.452  0.00  0.00    +0.176 C 
BRANCH  10  11
ATOM     11  C   GLY A   7      21.525  37.430   6.509  0.00  0.00    +0.243 C 
ATOM     12  N   GLY A   8      21.178  37.888   7.709  0.00  0.00    -0.295 N 
ATOM     13  H   GLY A   8      21.416  37.324   8.550  0.00  0.00    +0.150 HD
ATOM     14  O   GLY A   7      21.263  38.023   5.471  0.00  0.00    -0.273 OA
BRANCH  12  15
ATOM     15  CA  GLY A   8      20.476  39.151   7.885  0.00  0.00    +0.176 C 
BRANCH  15  16
ATOM     16  C   GLY A   8      19.150  39.001   8.607  0.00  0.00    +0.243 C 
ATOM     17  O   GLY A   8      18.978  38.110   9.459  0.00  0.00    -0.273 OA
ATOM     18  N   PHE A   9      18.211  39.877   8.266  0.00  0.00    -0.297 N 
ATOM     19  H   PHE A   9      18.377  40.499   7.449  0.00  0.00    +0.150 HD
BRANCH  18  20
ATOM     20  CA  PHE A   9      16.962  39.994   8.995  0.00  0.00    +0.153 C 
BRANCH  20  21
ATOM     21  C   PHE A   9      15.781  39.502   8.186  0.00  0.00    +0.241 C 
ATOM     22  N   ILE A  10      14.754  39.081   8.913  0.00  0.00    -0.298 N 
ATOM     23  H   ILE A  10      14.889  38.923   9.932  0.00  0.00    +0.150 HD
ATOM     24  O   PHE A   9      15.794  39.522   6.941  0.00  0.00    -0.273 OA
BRANCH  22  25
ATOM     25  CA  ILE A  10      13.433  38.831   8.324  0.00  0.00    +0.137 C 
BRANCH  25  26
ATOM     26  C   ILE A  10      12.361  39.543   9.128  0.00  0.00    +0.227 C 
ATOM     27  O   ILE A  10      12.561  39.853  10.302  0.00  0.00    -0.286 OA
ENDBRANCH  25  26
BRANCH  25  28
ATOM     28  CB  ILE A  10      13.096  37.322   8.230  0.00  0.00    +0.026 C 
ATOM     29  CG2 ILE A  10      14.101  36.626   7.328  0.00  0.00    +0.002 C 
BRANCH  28  30
ATOM     30  CG1 ILE A  10      13.041  36.665   9.618  0.00  0.00    +0.002 C 
ATOM     31  CD1 ILE A  10      12.316  35.333   9.618  0.00  0.00    +0.000 C 
ENDBRANCH  28  30
ENDBRANCH  25  28
ENDBRANCH  22  25
ENDBRANCH  20  21
BRANCH  20  32
ATOM     32  CB  PHE A   9      16.694  41.453   9.406  0.00  0.00    +0.055 C 
BRANCH  32  33
ATOM     33  CG  PHE A   9      17.513  41.923  10.584  0.00  0.00    -0.020 A 
ATOM     34  CD2 PHE A   9      16.928  42.117  11.829  0.00  0.00    -0.004 A 
ATOM     35  CE2 PHE A   9      17.699  42.551  12.921  0.00  0.00    -0.000 A 
ATOM     36  CZ  PHE A   9      19.046  42.801  12.756  0.00  0.00    -0.000 A 
ATOM     37  CE1 PHE A   9      19.629  42.614  11.520  0.00  0.00    -0.000 A 
ATOM     38  CD1 PHE A   9      18.868  42.175  10.446  0.00  0.00    -0.004 A 
ENDBRANCH  32  33
ENDBRANCH  20  32
ENDBRANCH  18  20
ENDBRANCH  15  16
ENDBRANCH  12  15
ENDBRANCH  10  11
ENDBRANCH   8  10
ENDBRANCH   5   6
BRANCH   5  39
ATOM     39  CB  ILE A   6      23.373  32.962   9.723  0.00  0.00    +0.027 C 
ATOM     40  CG2 ILE A   6      24.069  32.717   8.370  0.00  0.00    +0.002 C 
BRANCH  39  41
ATOM     41  CG1 ILE A   6      24.382  32.783  10.870  0.00  0.00    +0.002 C 
ATOM     42  CD1 ILE A   6      24.881  31.380  11.077  0.00  0.00    +0.000 C 
ENDBRANCH  39  41
ENDBRANCH   5  39
ENDBRANCH   2   5
BRANCH   1  43
ATOM     43  CA  GLY A   5      20.191  35.762  12.174  0.00  0.00    +0.176 C 
BRANCH  43  46
ATOM     44  C   GLY A   4      18.894  37.634  13.044  0.00  0.00    +0.243 C 
ATOM     45  O   GLY A   4      18.929  37.208  14.197  0.00  0.00    -0.273 OA
ATOM     46  N   GLY A   5      19.380  36.967  12.008  0.00  0.00    -0.295 N 
ATOM     47  H   GLY A   5      19.179  37.311  11.047  0.00  0.00    +0.150 HD
BRANCH  44  48
ATOM     48  CA  GLY A   4      18.274  38.976  12.720  0.00  0.00    +0.176 C 
BRANCH  48  50
ATOM     49  C   ILE A   3      15.863  39.251  12.893  0.00  0.00    +0.241 C 
ATOM     50  N   GLY A   4      17.058  39.219  13.473  0.00  0.00    -0.295 N 
ATOM     51  H   GLY A   4      17.124  39.373  14.499  0.00  0.00    +0.150 HD
ATOM     52  O   ILE A   3      15.673  38.972  11.712  0.00  0.00    -0.273 OA
BRANCH  49  53
ATOM     53  CA  ILE A   3      14.715  39.663  13.797  0.00  0.00    +0.149 C 
BRANCH  53  56
ATOM     54  C   MET A   2      13.311  41.616  13.510  0.00  0.00    +0.241 C 
ATOM     55  O   MET A   2      13.572  42.024  14.644  0.00  0.00    -0.273 OA
ATOM     56  N   ILE A   3      13.743  40.451  13.043  0.00  0.00    -0.297 N 
ATOM     57  H   ILE A   3      13.387  40.096  12.133  0.00  0.00    +0.150 HD
BRANCH  54  58
ATOM     58  CA  MET A   2      12.433  42.438  12.596  0.00  0.00    +0.149 C 
BRANCH  58  60
ATOM     59  C   LYS A   1      10.052  42.559  13.193  0.00  0.00    +0.238 C 
ATOM     60  N   MET A   2      11.314  42.936  13.393  0.00  0.00    -0.297 N 
ATOM     61  H   MET A   2      11.512  43.618  14.153  0.00  0.00    +0.150 HD
ATOM     62  O   LYS A   1       9.683  41.876  12.241  0.00  0.00    -0.274 OA
BRANCH  59  63
ATOM     63  CA  LYS A   1       9.042  43.044  14.230  0.00  0.00    +0.145 C 
BRANCH  63  64
ATOM     64  N   LYS A   1       7.719  43.060  13.621  0.00  0.00    -0.238 NA
ATOM     65  H   LYS A   1       7.494  42.338  12.907  0.00  0.00    +0.142 HD
ENDBRANCH  63  64
BRANCH  63  66
ATOM     66  CB  LYS A   1       9.009  42.081  15.416  0.00  0.00    +0.026 C 
BRANCH  66  67
ATOM     67  CG  LYS A   1      10.240  42.020  16.302  0.00  0.00    -0.000 C 
BRANCH  67  68
ATOM     68  CD  LYS A   1       9.970  41.026  17.435  0.00  0.00    -0.024 C 
BRANCH  68  69
ATOM     69  CE  LYS A   1      11.193  40.764  18.295  0.00  0.00    -0.086 C 
BRANCH  69  70
ATOM     70  NZ  LYS A   1      11.470  41.865  19.241  0.00  0.00    +0.380 N 
ATOM     71  HZ1 LYS A   1      10.655  41.990  19.874  0.00  0.00    -0.089 HD
ATOM     72  HZ2 LYS A   1      12.314  41.634  19.802  0.00  0.00    -0.089 HD
ATOM     73  HZ3 LYS A   1      11.635  42.744  18.710  0.00  0.00    -0.089 HD
ENDBRANCH  69  70
ENDBRANCH  68  69
ENDBRANCH  67  68
ENDBRANCH  66  67
ENDBRANCH  63  66
ENDBRANCH  59  63
ENDBRANCH  58  60
BRANCH  58  74
ATOM     74  CB  MET A   2      13.263  43.596  12.045  0.00  0.00    +0.041 C 
BRANCH  74  75
ATOM     75  CG  MET A   2      12.543  44.434  11.032  0.00  0.00    +0.060 C 
BRANCH  75  76
ATOM     76  SD  MET A   2      12.299  43.522   9.513  0.00  0.00    -0.139 S 
ATOM     77  CE  MET A   2      13.927  43.643   8.778  0.00  0.00    +0.069 C 
ENDBRANCH  75  76
ENDBRANCH  74  75
ENDBRANCH  58  74
ENDBRANCH  54  58
ENDBRANCH  53  56
BRANCH  53  78
ATOM     78  CB  ILE A   3      14.087  38.435  14.496  0.00  0.00    +0.027 C 
ATOM     79  CG2 ILE A   3      13.093  38.890  15.580  0.00  0.00    +0.002 C 
BRANCH  78  80
ATOM     80  CG1 ILE A   3      13.402  37.501  13.493  0.00  0.00    +0.002 C 
ATOM     81  CD1 ILE A   3      13.029  36.163  14.084  0.00  0.00    +0.000 C 
ENDBRANCH  78  80
ENDBRANCH  53  78
ENDBRANCH  49  53
ENDBRANCH  48  50
ENDBRANCH  44  48
ENDBRANCH  43  46
ENDBRANCH   1  43
TORSDOF 36
REMARK  Name = ../refined-set-2016/2qi3/2qi3_pocket.pdb
REMARK  219 active torsions:
REMARK  status: ('A' for Active; 'I' for Inactive)
REMARK    1  A    between atoms: _1  and  _3
REMARK    2  A    between atoms: _3  and  _4
REMARK    3  A    between atoms: _3  and  _6
REMARK    4  A    between atoms: _6  and  _7
REMARK    5  A    between atoms: _7  and  _8
REMARK    6  A    between atoms: _8  and  _9
REMARK    7  A    between atoms: _18  and  _20
REMARK    8  A    between atoms: _20  and  _21
REMARK    9  A    between atoms: _20  and  _23
REMARK   10  A    between atoms: _23  and  _24
REMARK   11  A    between atoms: _27  and  _29
REMARK   12  A    between atoms: _29  and  _30
REMARK   13  A    between atoms: _29  and  _32
REMARK   14  A    between atoms: _32  and  _33
REMARK   15  A    between atoms: _36  and  _38
REMARK   16  A    between atoms: _38  and  _39
REMARK   17  A    between atoms: _38  and  _41
REMARK   18  A    between atoms: _41  and  _42
REMARK   19  A    between atoms: _45  and  _47
REMARK   20  A    between atoms: _47  and  _48
REMARK   21  A    between atoms: _47  and  _50
REMARK   22  A    between atoms: _50  and  _51
REMARK   23  A    between atoms: _54  and  _56
REMARK   24  A    between atoms: _56  and  _57
REMARK   25  A    between atoms: _59  and  _61
REMARK   26  A    between atoms: _61  and  _62
REMARK   27  A    between atoms: _65  and  _67
REMARK   28  A    between atoms: _67  and  _68
REMARK   29  A    between atoms: _67  and  _70
REMARK   30  A    between atoms: _70  and  _71
REMARK   31  A    between atoms: _74  and  _76
REMARK   32  A    between atoms: _76  and  _77
REMARK   33  A    between atoms: _76  and  _79
REMARK   34  A    between atoms: _79  and  _80
REMARK   35  A    between atoms: _83  and  _85
REMARK   36  A    between atoms: _85  and  _86
REMARK   37  A    between atoms: _85  and  _88
REMARK   38  A    between atoms: _88  and  _89
REMARK   39  A    between atoms: _92  and  _94
REMARK   40  A    between atoms: _94  and  _95
REMARK   41  A    between atoms: _94  and  _97
REMARK   42  A    between atoms: _100  and  _102
REMARK   43  A    between atoms: _102  and  _103
REMARK   44  A    between atoms: _102  and  _105
REMARK   45  A    between atoms: _105  and  _106
REMARK   46  A    between atoms: _106  and  _107
REMARK   47  A    between atoms: _109  and  _111
REMARK   48  A    between atoms: _111  and  _112
REMARK   49  A    between atoms: _111  and  _114
REMARK   50  A    between atoms: _114  and  _115
REMARK   51  A    between atoms: _118  and  _120
REMARK   52  A    between atoms: _120  and  _121
REMARK   53  A    between atoms: _123  and  _125
REMARK   54  A    between atoms: _125  and  _126
REMARK   55  A    between atoms: _128  and  _130
REMARK   56  A    between atoms: _130  and  _131
REMARK   57  A    between atoms: _130  and  _133
REMARK   58  A    between atoms: _133  and  _134
REMARK   59  A    between atoms: _137  and  _139
REMARK   60  A    between atoms: _139  and  _140
REMARK   61  A    between atoms: _142  and  _144
REMARK   62  A    between atoms: _144  and  _145
REMARK   63  A    between atoms: _147  and  _149
REMARK   64  A    between atoms: _149  and  _150
REMARK   65  A    between atoms: _149  and  _152
REMARK   66  A    between atoms: _152  and  _153
REMARK   67  A    between atoms: _159  and  _161
REMARK   68  A    between atoms: _161  and  _162
REMARK   69  A    between atoms: _161  and  _164
REMARK   70  A    between atoms: _164  and  _165
REMARK   71  A    between atoms: _168  and  _170
REMARK   72  A    between atoms: _170  and  _171
REMARK   73  A    between atoms: _170  and  _173
REMARK   74  A    between atoms: _173  and  _174
REMARK   75  A    between atoms: _177  and  _179
REMARK   76  A    between atoms: _179  and  _180
REMARK   77  A    between atoms: _179  and  _182
REMARK   78  A    between atoms: _182  and  _183
REMARK   79  A    between atoms: _187  and  _188
REMARK   80  A    between atoms: _193  and  _195
REMARK   81  A    between atoms: _195  and  _196
REMARK   82  A    between atoms: _195  and  _198
REMARK   83  A    between atoms: _201  and  _203
REMARK   84  A    between atoms: _203  and  _204
REMARK   85  A    between atoms: _203  and  _206
REMARK   86  A    between atoms: _206  and  _207
REMARK   87  A    between atoms: _212  and  _214
REMARK   88  A    between atoms: _214  and  _215
REMARK   89  A    between atoms: _214  and  _217
REMARK   90  A    between atoms: _217  and  _218
REMARK   91  A    between atoms: _221  and  _223
REMARK   92  A    between atoms: _223  and  _224
REMARK   93  A    between atoms: _223  and  _226
REMARK   94  A    between atoms: _226  and  _227
REMARK   95  A    between atoms: _230  and  _232
REMARK   96  A    between atoms: _232  and  _233
REMARK   97  A    between atoms: _235  and  _237
REMARK   98  A    between atoms: _237  and  _238
REMARK   99  A    between atoms: _237  and  _240
REMARK  100  A    between atoms: _240  and  _241
REMARK  101  A    between atoms: _241  and  _242
REMARK  102  A    between atoms: _242  and  _243
REMARK  103  A    between atoms: _252  and  _254
REMARK  104  A    between atoms: _254  and  _255
REMARK  105  A    between atoms: _254  and  _257
REMARK  106  A    between atoms: _257  and  _258
REMARK  107  A    between atoms: _258  and  _259
REMARK  108  A    between atoms: _259  and  _260
REMARK  109  A    between atoms: _269  and  _271
REMARK  110  A    between atoms: _271  and  _272
REMARK  111  A    between atoms: _271  and  _274
REMARK  112  A    between atoms: _274  and  _275
REMARK  113  A    between atoms: _278  and  _280
REMARK  114  A    between atoms: _280  and  _281
REMARK  115  A    between atoms: _280  and  _283
REMARK  116  A    between atoms: _283  and  _284
REMARK  117  A    between atoms: _287  and  _289
REMARK  118  A    between atoms: _289  and  _290
REMARK  119  A    between atoms: _289  and  _292
REMARK  120  A    between atoms: _292  and  _293
REMARK  121  A    between atoms: _296  and  _298
REMARK  122  A    between atoms: _298  and  _299
REMARK  123  A    between atoms: _298  and  _301
REMARK  124  A    between atoms: _301  and  _302
REMARK  125  A    between atoms: _305  and  _307
REMARK  126  A    between atoms: _307  and  _308
REMARK  127  A    between atoms: _310  and  _312
REMARK  128  A    between atoms: _312  and  _313
REMARK  129  A    between atoms: _316  and  _318
REMARK  130  A    between atoms: _318  and  _319
REMARK  131  A    between atoms: _318  and  _321
REMARK  132  A    between atoms: _321  and  _322
REMARK  133  A    between atoms: _325  and  _327
REMARK  134  A    between atoms: _327  and  _328
REMARK  135  A    between atoms: _327  and  _330
REMARK  136  A    between atoms: _330  and  _331
REMARK  137  A    between atoms: _334  and  _336
REMARK  138  A    between atoms: _336  and  _337
REMARK  139  A    between atoms: _336  and  _339
REMARK  140  A    between atoms: _339  and  _340
REMARK  141  A    between atoms: _343  and  _345
REMARK  142  A    between atoms: _345  and  _346
REMARK  143  A    between atoms: _345  and  _348
REMARK  144  A    between atoms: _351  and  _353
REMARK  145  A    between atoms: _353  and  _354
REMARK  146  A    between atoms: _353  and  _356
REMARK  147  A    between atoms: _356  and  _357
REMARK  148  A    between atoms: _357  and  _358
REMARK  149  A    between atoms: _358  and  _359
REMARK  150  A    between atoms: _359  and  _360
REMARK  151  A    between atoms: _364  and  _366
REMARK  152  A    between atoms: _366  and  _367
REMARK  153  A    between atoms: _366  and  _369
REMARK  154  A    between atoms: _369  and  _370
REMARK  155  A    between atoms: _370  and  _371
REMARK  156  A    between atoms: _373  and  _375
REMARK  157  A    between atoms: _375  and  _376
REMARK  158  A    between atoms: _375  and  _378
REMARK  159  A    between atoms: _378  and  _379
REMARK  160  A    between atoms: _382  and  _384
REMARK  161  A    between atoms: _384  and  _385
REMARK  162  A    between atoms: _387  and  _389
REMARK  163  A    between atoms: _389  and  _390
REMARK  164  A    between atoms: _392  and  _394
REMARK  165  A    between atoms: _394  and  _395
REMARK  166  A    between atoms: _394  and  _397
REMARK  167  A    between atoms: _397  and  _398
REMARK  168  A    between atoms: _401  and  _403
REMARK  169  A    between atoms: _403  and  _404
REMARK  170  A    between atoms: _406  and  _408
REMARK  171  A    between atoms: _408  and  _409
REMARK  172  A    between atoms: _411  and  _413
REMARK  173  A    between atoms: _413  and  _414
REMARK  174  A    between atoms: _413  and  _416
REMARK  175  A    between atoms: _416  and  _417
REMARK  176  A    between atoms: _423  and  _425
REMARK  177  A    between atoms: _425  and  _426
REMARK  178  A    between atoms: _425  and  _428
REMARK  179  A    between atoms: _428  and  _429
REMARK  180  A    between atoms: _432  and  _434
REMARK  181  A    between atoms: _434  and  _435
REMARK  182  A    between atoms: _434  and  _437
REMARK  183  A    between atoms: _440  and  _442
REMARK  184  A    between atoms: _442  and  _443
REMARK  185  A    between atoms: _442  and  _445
REMARK  186  A    between atoms: _445  and  _446
REMARK  187  A    between atoms: _450  and  _451
REMARK  188  A    between atoms: _456  and  _458
REMARK  189  A    between atoms: _458  and  _459
REMARK  190  A    between atoms: _458  and  _461
REMARK  191  A    between atoms: _461  and  _462
REMARK  192  A    between atoms: _466  and  _467
REMARK  193  A    between atoms: _472  and  _474
REMARK  194  A    between atoms: _474  and  _475
REMARK  195  A    between atoms: _474  and  _477
REMARK  196  A    between atoms: _480  and  _482
REMARK  197  A    between atoms: _482  and  _483
REMARK  198  A    between atoms: _482  and  _485
REMARK  199  A    between atoms: _485  and  _486
REMARK  200  A    between atoms: _491  and  _493
REMARK  201  A    between atoms: _493  and  _494
REMARK  202  A    between atoms: _493  and  _496
REMARK  203  A    between atoms: _496  and  _497
REMARK  204  A    between atoms: _500  and  _502
REMARK  205  A    between atoms: _502  and  _503
REMARK  206  A    between atoms: _502  and  _505
REMARK  207  A    between atoms: _505  and  _506
REMARK  208  A    between atoms: _509  and  _511
REMARK  209  A    between atoms: _511  and  _512
REMARK  210  A    between atoms: _514  and  _516
REMARK  211  A    between atoms: _516  and  _517
REMARK  212  A    between atoms: _516  and  _519
REMARK  213  A    between atoms: _519  and  _520
REMARK  214  A    between atoms: _520  and  _521
REMARK  215  A    between atoms: _521  and  _522
REMARK  216  A    between atoms: _531  and  _533
REMARK  217  A    between atoms: _533  and  _534
REMARK  218  A    between atoms: _533  and  _536
REMARK  219  A    between atoms: _536  and  _537
REMARK                            x       y       z     vdW  Elec       q    Type
REMARK                         _______ _______ _______ _____ _____    ______ ____
ROOT
ATOM      1  CA  VAL A   1       7.848  38.584  11.551  0.00  0.00    +0.133 C 
ENDROOT
BRANCH   1   2
ATOM      2  CB  VAL A   1       8.605  37.736  12.608  0.00  0.00    +0.023 C 
ATOM      3  CG2 VAL A   1       9.174  38.607  13.733  0.00  0.00    +0.002 C 
ATOM      4  CG1 VAL A   1       9.705  36.930  11.939  0.00  0.00    +0.002 C 
ENDBRANCH   1   2
BRANCH   1   5
ATOM      5  N   VAL A   1       8.731  39.541  10.885  0.00  0.00    -0.239 NA
ATOM      6  H   VAL A   1       9.030  40.393  11.401  0.00  0.00    +0.142 HD
ENDBRANCH   1   5
BRANCH   1   7
ATOM      7  C   VAL A   1       6.666  39.316  12.190  0.00  0.00    +0.224 C 
ATOM      8  O   VAL A   1       6.685  40.547  12.316  0.00  0.00    -0.287 OA
ENDBRANCH   1   7
TORSDOF 3
REMARK  Name = ../refined-set-2016/2qi3/2qi3_pocket.pdb
REMARK  219 active torsions:
REMARK  status: ('A' for Active; 'I' for Inactive)
REMARK    1  A    between atoms: _1  and  _3
REMARK    2  A    between atoms: _3  and  _4
REMARK    3  A    between atoms: _3  and  _6
REMARK    4  A    between atoms: _6  and  _7
REMARK    5  A    between atoms: _7  and  _8
REMARK    6  A    between atoms: _8  and  _9
REMARK    7  A    between atoms: _18  and  _20
REMARK    8  A    between atoms: _20  and  _21
REMARK    9  A    between atoms: _20  and  _23
REMARK   10  A    between atoms: _23  and  _24
REMARK   11  A    between atoms: _27  and  _29
REMARK   12  A    between atoms: _29  and  _30
REMARK   13  A    between atoms: _29  and  _32
REMARK   14  A    between atoms: _32  and  _33
REMARK   15  A    between atoms: _36  and  _38
REMARK   16  A    between atoms: _38  and  _39
REMARK   17  A    between atoms: _38  and  _41
REMARK   18  A    between atoms: _41  and  _42
REMARK   19  A    between atoms: _45  and  _47
REMARK   20  A    between atoms: _47  and  _48
REMARK   21  A    between atoms: _47  and  _50
REMARK   22  A    between atoms: _50  and  _51
REMARK   23  A    between atoms: _54  and  _56
REMARK   24  A    between atoms: _56  and  _57
REMARK   25  A    between atoms: _59  and  _61
REMARK   26  A    between atoms: _61  and  _62
REMARK   27  A    between atoms: _65  and  _67
REMARK   28  A    between atoms: _67  and  _68
REMARK   29  A    between atoms: _67  and  _70
REMARK   30  A    between atoms: _70  and  _71
REMARK   31  A    between atoms: _74  and  _76
REMARK   32  A    between atoms: _76  and  _77
REMARK   33  A    between atoms: _76  and  _79
REMARK   34  A    between atoms: _79  and  _80
REMARK   35  A    between atoms: _83  and  _85
REMARK   36  A    between atoms: _85  and  _86
REMARK   37  A    between atoms: _85  and  _88
REMARK   38  A    between atoms: _88  and  _89
REMARK   39  A    between atoms: _92  and  _94
REMARK   40  A    between atoms: _94  and  _95
REMARK   41  A    between atoms: _94  and  _97
REMARK   42  A    between atoms: _100  and  _102
REMARK   43  A    between atoms: _102  and  _103
REMARK   44  A    between atoms: _102  and  _105
REMARK   45  A    between atoms: _105  and  _106
REMARK   46  A    between atoms: _106  and  _107
REMARK   47  A    between atoms: _109  and  _111
REMARK   48  A    between atoms: _111  and  _112
REMARK   49  A    between atoms: _111  and  _114
REMARK   50  A    between atoms: _114  and  _115
REMARK   51  A    between atoms: _118  and  _120
REMARK   52  A    between atoms: _120  and  _121
REMARK   53  A    between atoms: _123  and  _125
REMARK   54  A    between atoms: _125  and  _126
REMARK   55  A    between atoms: _128  and  _130
REMARK   56  A    between atoms: _130  and  _131
REMARK   57  A    between atoms: _130  and  _133
REMARK   58  A    between atoms: _133  and  _134
REMARK   59  A    between atoms: _137  and  _139
REMARK   60  A    between atoms: _139  and  _140
REMARK   61  A    between atoms: _142  and  _144
REMARK   62  A    between atoms: _144  and  _145
REMARK   63  A    between atoms: _147  and  _149
REMARK   64  A    between atoms: _149  and  _150
REMARK   65  A    between atoms: _149  and  _152
REMARK   66  A    between atoms: _152  and  _153
REMARK   67  A    between atoms: _159  and  _161
REMARK   68  A    between atoms: _161  and  _162
REMARK   69  A    between atoms: _161  and  _164
REMARK   70  A    between atoms: _164  and  _165
REMARK   71  A    between atoms: _168  and  _170
REMARK   72  A    between atoms: _170  and  _171
REMARK   73  A    between atoms: _170  and  _173
REMARK   74  A    between atoms: _173  and  _174
REMARK   75  A    between atoms: _177  and  _179
REMARK   76  A    between atoms: _179  and  _180
REMARK   77  A    between atoms: _179  and  _182
REMARK   78  A    between atoms: _182  and  _183
REMARK   79  A    between atoms: _187  and  _188
REMARK   80  A    between atoms: _193  and  _195
REMARK   81  A    between atoms: _195  and  _196
REMARK   82  A    between atoms: _195  and  _198
REMARK   83  A    between atoms: _201  and  _203
REMARK   84  A    between atoms: _203  and  _204
REMARK   85  A    between atoms: _203  and  _206
REMARK   86  A    between atoms: _206  and  _207
REMARK   87  A    between atoms: _212  and  _214
REMARK   88  A    between atoms: _214  and  _215
REMARK   89  A    between atoms: _214  and  _217
REMARK   90  A    between atoms: _217  and  _218
REMARK   91  A    between atoms: _221  and  _223
REMARK   92  A    between atoms: _223  and  _224
REMARK   93  A    between atoms: _223  and  _226
REMARK   94  A    between atoms: _226  and  _227
REMARK   95  A    between atoms: _230  and  _232
REMARK   96  A    between atoms: _232  and  _233
REMARK   97  A    between atoms: _235  and  _237
REMARK   98  A    between atoms: _237  and  _238
REMARK   99  A    between atoms: _237  and  _240
REMARK  100  A    between atoms: _240  and  _241
REMARK  101  A    between atoms: _241  and  _242
REMARK  102  A    between atoms: _242  and  _243
REMARK  103  A    between atoms: _252  and  _254
REMARK  104  A    between atoms: _254  and  _255
REMARK  105  A    between atoms: _254  and  _257
REMARK  106  A    between atoms: _257  and  _258
REMARK  107  A    between atoms: _258  and  _259
REMARK  108  A    between atoms: _259  and  _260
REMARK  109  A    between atoms: _269  and  _271
REMARK  110  A    between atoms: _271  and  _272
REMARK  111  A    between atoms: _271  and  _274
REMARK  112  A    between atoms: _274  and  _275
REMARK  113  A    between atoms: _278  and  _280
REMARK  114  A    between atoms: _280  and  _281
REMARK  115  A    between atoms: _280  and  _283
REMARK  116  A    between atoms: _283  and  _284
REMARK  117  A    between atoms: _287  and  _289
REMARK  118  A    between atoms: _289  and  _290
REMARK  119  A    between atoms: _289  and  _292
REMARK  120  A    between atoms: _292  and  _293
REMARK  121  A    between atoms: _296  and  _298
REMARK  122  A    between atoms: _298  and  _299
REMARK  123  A    between atoms: _298  and  _301
REMARK  124  A    between atoms: _301  and  _302
REMARK  125  A    between atoms: _305  and  _307
REMARK  126  A    between atoms: _307  and  _308
REMARK  127  A    between atoms: _310  and  _312
REMARK  128  A    between atoms: _312  and  _313
REMARK  129  A    between atoms: _316  and  _318
REMARK  130  A    between atoms: _318  and  _319
REMARK  131  A    between atoms: _318  and  _321
REMARK  132  A    between atoms: _321  and  _322
REMARK  133  A    between atoms: _325  and  _327
REMARK  134  A    between atoms: _327  and  _328
REMARK  135  A    between atoms: _327  and  _330
REMARK  136  A    between atoms: _330  and  _331
REMARK  137  A    between atoms: _334  and  _336
REMARK  138  A    between atoms: _336  and  _337
REMARK  139  A    between atoms: _336  and  _339
REMARK  140  A    between atoms: _339  and  _340
REMARK  141  A    between atoms: _343  and  _345
REMARK  142  A    between atoms: _345  and  _346
REMARK  143  A    between atoms: _345  and  _348
REMARK  144  A    between atoms: _351  and  _353
REMARK  145  A    between atoms: _353  and  _354
REMARK  146  A    between atoms: _353  and  _356
REMARK  147  A    between atoms: _356  and  _357
REMARK  148  A    between atoms: _357  and  _358
REMARK  149  A    between atoms: _358  and  _359
REMARK  150  A    between atoms: _359  and  _360
REMARK  151  A    between atoms: _364  and  _366
REMARK  152  A    between atoms: _366  and  _367
REMARK  153  A    between atoms: _366  and  _369
REMARK  154  A    between atoms: _369  and  _370
REMARK  155  A    between atoms: _370  and  _371
REMARK  156  A    between atoms: _373  and  _375
REMARK  157  A    between atoms: _375  and  _376
REMARK  158  A    between atoms: _375  and  _378
REMARK  159  A    between atoms: _378  and  _379
REMARK  160  A    between atoms: _382  and  _384
REMARK  161  A    between atoms: _384  and  _385
REMARK  162  A    between atoms: _387  and  _389
REMARK  163  A    between atoms: _389  and  _390
REMARK  164  A    between atoms: _392  and  _394
REMARK  165  A    between atoms: _394  and  _395
REMARK  166  A    between atoms: _394  and  _397
REMARK  167  A    between atoms: _397  and  _398
REMARK  168  A    between atoms: _401  and  _403
REMARK  169  A    between atoms: _403  and  _404
REMARK  170  A    between atoms: _406  and  _408
REMARK  171  A    between atoms: _408  and  _409
REMARK  172  A    between atoms: _411  and  _413
REMARK  173  A    between atoms: _413  and  _414
REMARK  174  A    between atoms: _413  and  _416
REMARK  175  A    between atoms: _416  and  _417
REMARK  176  A    between atoms: _423  and  _425
REMARK  177  A    between atoms: _425  and  _426
REMARK  178  A    between atoms: _425  and  _428
REMARK  179  A    between atoms: _428  and  _429
REMARK  180  A    between atoms: _432  and  _434
REMARK  181  A    between atoms: _434  and  _435
REMARK  182  A    between atoms: _434  and  _437
REMARK  183  A    between atoms: _440  and  _442
REMARK  184  A    between atoms: _442  and  _443
REMARK  185  A    between atoms: _442  and  _445
REMARK  186  A    between atoms: _445  and  _446
REMARK  187  A    between atoms: _450  and  _451
REMARK  188  A    between atoms: _456  and  _458
REMARK  189  A    between atoms: _458  and  _459
REMARK  190  A    between atoms: _458  and  _461
REMARK  191  A    between atoms: _461  and  _462
REMARK  192  A    between atoms: _466  and  _467
REMARK  193  A    between atoms: _472  and  _474
REMARK  194  A    between atoms: _474  and  _475
REMARK  195  A    between atoms: _474  and  _477
REMARK  196  A    between atoms: _480  and  _482
REMARK  197  A    between atoms: _482  and  _483
REMARK  198  A    between atoms: _482  and  _485
REMARK  199  A    between atoms: _485  and  _486
REMARK  200  A    between atoms: _491  and  _493
REMARK  201  A    between atoms: _493  and  _494
REMARK  202  A    between atoms: _493  and  _496
REMARK  203  A    between atoms: _496  and  _497
REMARK  204  A    between atoms: _500  and  _502
REMARK  205  A    between atoms: _502  and  _503
REMARK  206  A    between atoms: _502  and  _505
REMARK  207  A    between atoms: _505  and  _506
REMARK  208  A    between atoms: _509  and  _511
REMARK  209  A    between atoms: _511  and  _512
REMARK  210  A    between atoms: _514  and  _516
REMARK  211  A    between atoms: _516  and  _517
REMARK  212  A    between atoms: _516  and  _519
REMARK  213  A    between atoms: _519  and  _520
REMARK  214  A    between atoms: _520  and  _521
REMARK  215  A    between atoms: _521  and  _522
REMARK  216  A    between atoms: _531  and  _533
REMARK  217  A    between atoms: _533  and  _534
REMARK  218  A    between atoms: _533  and  _536
REMARK  219  A    between atoms: _536  and  _537
REMARK                            x       y       z     vdW  Elec       q    Type
REMARK                         _______ _______ _______ _____ _____    ______ ____
ROOT
ATOM      1  CA  LEU A   1       6.916  35.265  16.177  0.00  0.00    +0.133 C 
ENDROOT
BRANCH   1   2
ATOM      2  N   LEU A   1       6.652  34.457  17.351  0.00  0.00    -0.239 NA
ATOM      3  H   LEU A   1       7.369  33.765  17.649  0.00  0.00    +0.142 HD
ENDBRANCH   1   2
BRANCH   1   4
ATOM      4  C   LEU A   1       6.638  34.402  14.954  0.00  0.00    +0.224 C 
ATOM      5  O   LEU A   1       7.101  33.265  14.869  0.00  0.00    -0.287 OA
ENDBRANCH   1   4
BRANCH   1   6
ATOM      6  CB  LEU A   1       8.373  35.727  16.165  0.00  0.00    +0.025 C 
BRANCH   6   7
ATOM      7  CG  LEU A   1       8.924  36.370  17.443  0.00  0.00    +0.002 C 
ATOM      8  CD2 LEU A   1       8.046  37.533  17.918  0.00  0.00    +0.000 C 
ATOM      9  CD1 LEU A   1      10.341  36.834  17.186  0.00  0.00    +0.000 C 
ENDBRANCH   6   7
ENDBRANCH   1   6
TORSDOF 4
REMARK  Name = ../refined-set-2016/2qi3/2qi3_pocket.pdb
REMARK  219 active torsions:
REMARK  status: ('A' for Active; 'I' for Inactive)
REMARK    1  A    between atoms: _1  and  _3
REMARK    2  A    between atoms: _3  and  _4
REMARK    3  A    between atoms: _3  and  _6
REMARK    4  A    between atoms: _6  and  _7
REMARK    5  A    between atoms: _7  and  _8
REMARK    6  A    between atoms: _8  and  _9
REMARK    7  A    between atoms: _18  and  _20
REMARK    8  A    between atoms: _20  and  _21
REMARK    9  A    between atoms: _20  and  _23
REMARK   10  A    between atoms: _23  and  _24
REMARK   11  A    between atoms: _27  and  _29
REMARK   12  A    between atoms: _29  and  _30
REMARK   13  A    between atoms: _29  and  _32
REMARK   14  A    between atoms: _32  and  _33
REMARK   15  A    between atoms: _36  and  _38
REMARK   16  A    between atoms: _38  and  _39
REMARK   17  A    between atoms: _38  and  _41
REMARK   18  A    between atoms: _41  and  _42
REMARK   19  A    between atoms: _45  and  _47
REMARK   20  A    between atoms: _47  and  _48
REMARK   21  A    between atoms: _47  and  _50
REMARK   22  A    between atoms: _50  and  _51
REMARK   23  A    between atoms: _54  and  _56
REMARK   24  A    between atoms: _56  and  _57
REMARK   25  A    between atoms: _59  and  _61
REMARK   26  A    between atoms: _61  and  _62
REMARK   27  A    between atoms: _65  and  _67
REMARK   28  A    between atoms: _67  and  _68
REMARK   29  A    between atoms: _67  and  _70
REMARK   30  A    between atoms: _70  and  _71
REMARK   31  A    between atoms: _74  and  _76
REMARK   32  A    between atoms: _76  and  _77
REMARK   33  A    between atoms: _76  and  _79
REMARK   34  A    between atoms: _79  and  _80
REMARK   35  A    between atoms: _83  and  _85
REMARK   36  A    between atoms: _85  and  _86
REMARK   37  A    between atoms: _85  and  _88
REMARK   38  A    between atoms: _88  and  _89
REMARK   39  A    between atoms: _92  and  _94
REMARK   40  A    between atoms: _94  and  _95
REMARK   41  A    between atoms: _94  and  _97
REMARK   42  A    between atoms: _100  and  _102
REMARK   43  A    between atoms: _102  and  _103
REMARK   44  A    between atoms: _102  and  _105
REMARK   45  A    between atoms: _105  and  _106
REMARK   46  A    between atoms: _106  and  _107
REMARK   47  A    between atoms: _109  and  _111
REMARK   48  A    between atoms: _111  and  _112
REMARK   49  A    between atoms: _111  and  _114
REMARK   50  A    between atoms: _114  and  _115
REMARK   51  A    between atoms: _118  and  _120
REMARK   52  A    between atoms: _120  and  _121
REMARK   53  A    between atoms: _123  and  _125
REMARK   54  A    between atoms: _125  and  _126
REMARK   55  A    between atoms: _128  and  _130
REMARK   56  A    between atoms: _130  and  _131
REMARK   57  A    between atoms: _130  and  _133
REMARK   58  A    between atoms: _133  and  _134
REMARK   59  A    between atoms: _137  and  _139
REMARK   60  A    between atoms: _139  and  _140
REMARK   61  A    between atoms: _142  and  _144
REMARK   62  A    between atoms: _144  and  _145
REMARK   63  A    between atoms: _147  and  _149
REMARK   64  A    between atoms: _149  and  _150
REMARK   65  A    between atoms: _149  and  _152
REMARK   66  A    between atoms: _152  and  _153
REMARK   67  A    between atoms: _159  and  _161
REMARK   68  A    between atoms: _161  and  _162
REMARK   69  A    between atoms: _161  and  _164
REMARK   70  A    between atoms: _164  and  _165
REMARK   71  A    between atoms: _168  and  _170
REMARK   72  A    between atoms: _170  and  _171
REMARK   73  A    between atoms: _170  and  _173
REMARK   74  A    between atoms: _173  and  _174
REMARK   75  A    between atoms: _177  and  _179
REMARK   76  A    between atoms: _179  and  _180
REMARK   77  A    between atoms: _179  and  _182
REMARK   78  A    between atoms: _182  and  _183
REMARK   79  A    between atoms: _187  and  _188
REMARK   80  A    between atoms: _193  and  _195
REMARK   81  A    between atoms: _195  and  _196
REMARK   82  A    between atoms: _195  and  _198
REMARK   83  A    between atoms: _201  and  _203
REMARK   84  A    between atoms: _203  and  _204
REMARK   85  A    between atoms: _203  and  _206
REMARK   86  A    between atoms: _206  and  _207
REMARK   87  A    between atoms: _212  and  _214
REMARK   88  A    between atoms: _214  and  _215
REMARK   89  A    between atoms: _214  and  _217
REMARK   90  A    between atoms: _217  and  _218
REMARK   91  A    between atoms: _221  and  _223
REMARK   92  A    between atoms: _223  and  _224
REMARK   93  A    between atoms: _223  and  _226
REMARK   94  A    between atoms: _226  and  _227
REMARK   95  A    between atoms: _230  and  _232
REMARK   96  A    between atoms: _232  and  _233
REMARK   97  A    between atoms: _235  and  _237
REMARK   98  A    between atoms: _237  and  _238
REMARK   99  A    between atoms: _237  and  _240
REMARK  100  A    between atoms: _240  and  _241
REMARK  101  A    between atoms: _241  and  _242
REMARK  102  A    between atoms: _242  and  _243
REMARK  103  A    between atoms: _252  and  _254
REMARK  104  A    between atoms: _254  and  _255
REMARK  105  A    between atoms: _254  and  _257
REMARK  106  A    between atoms: _257  and  _258
REMARK  107  A    between atoms: _258  and  _259
REMARK  108  A    between atoms: _259  and  _260
REMARK  109  A    between atoms: _269  and  _271
REMARK  110  A    between atoms: _271  and  _272
REMARK  111  A    between atoms: _271  and  _274
REMARK  112  A    between atoms: _274  and  _275
REMARK  113  A    between atoms: _278  and  _280
REMARK  114  A    between atoms: _280  and  _281
REMARK  115  A    between atoms: _280  and  _283
REMARK  116  A    between atoms: _283  and  _284
REMARK  117  A    between atoms: _287  and  _289
REMARK  118  A    between atoms: _289  and  _290
REMARK  119  A    between atoms: _289  and  _292
REMARK  120  A    between atoms: _292  and  _293
REMARK  121  A    between atoms: _296  and  _298
REMARK  122  A    between atoms: _298  and  _299
REMARK  123  A    between atoms: _298  and  _301
REMARK  124  A    between atoms: _301  and  _302
REMARK  125  A    between atoms: _305  and  _307
REMARK  126  A    between atoms: _307  and  _308
REMARK  127  A    between atoms: _310  and  _312
REMARK  128  A    between atoms: _312  and  _313
REMARK  129  A    between atoms: _316  and  _318
REMARK  130  A    between atoms: _318  and  _319
REMARK  131  A    between atoms: _318  and  _321
REMARK  132  A    between atoms: _321  and  _322
REMARK  133  A    between atoms: _325  and  _327
REMARK  134  A    between atoms: _327  and  _328
REMARK  135  A    between atoms: _327  and  _330
REMARK  136  A    between atoms: _330  and  _331
REMARK  137  A    between atoms: _334  and  _336
REMARK  138  A    between atoms: _336  and  _337
REMARK  139  A    between atoms: _336  and  _339
REMARK  140  A    between atoms: _339  and  _340
REMARK  141  A    between atoms: _343  and  _345
REMARK  142  A    between atoms: _345  and  _346
REMARK  143  A    between atoms: _345  and  _348
REMARK  144  A    between atoms: _351  and  _353
REMARK  145  A    between atoms: _353  and  _354
REMARK  146  A    between atoms: _353  and  _356
REMARK  147  A    between atoms: _356  and  _357
REMARK  148  A    between atoms: _357  and  _358
REMARK  149  A    between atoms: _358  and  _359
REMARK  150  A    between atoms: _359  and  _360
REMARK  151  A    between atoms: _364  and  _366
REMARK  152  A    between atoms: _366  and  _367
REMARK  153  A    between atoms: _366  and  _369
REMARK  154  A    between atoms: _369  and  _370
REMARK  155  A    between atoms: _370  and  _371
REMARK  156  A    between atoms: _373  and  _375
REMARK  157  A    between atoms: _375  and  _376
REMARK  158  A    between atoms: _375  and  _378
REMARK  159  A    between atoms: _378  and  _379
REMARK  160  A    between atoms: _382  and  _384
REMARK  161  A    between atoms: _384  and  _385
REMARK  162  A    between atoms: _387  and  _389
REMARK  163  A    between atoms: _389  and  _390
REMARK  164  A    between atoms: _392  and  _394
REMARK  165  A    between atoms: _394  and  _395
REMARK  166  A    between atoms: _394  and  _397
REMARK  167  A    between atoms: _397  and  _398
REMARK  168  A    between atoms: _401  and  _403
REMARK  169  A    between atoms: _403  and  _404
REMARK  170  A    between atoms: _406  and  _408
REMARK  171  A    between atoms: _408  and  _409
REMARK  172  A    between atoms: _411  and  _413
REMARK  173  A    between atoms: _413  and  _414
REMARK  174  A    between atoms: _413  and  _416
REMARK  175  A    between atoms: _416  and  _417
REMARK  176  A    between atoms: _423  and  _425
REMARK  177  A    between atoms: _425  and  _426
REMARK  178  A    between atoms: _425  and  _428
REMARK  179  A    between atoms: _428  and  _429
REMARK  180  A    between atoms: _432  and  _434
REMARK  181  A    between atoms: _434  and  _435
REMARK  182  A    between atoms: _434  and  _437
REMARK  183  A    between atoms: _440  and  _442
REMARK  184  A    between atoms: _442  and  _443
REMARK  185  A    between atoms: _442  and  _445
REMARK  186  A    between atoms: _445  and  _446
REMARK  187  A    between atoms: _450  and  _451
REMARK  188  A    between atoms: _456  and  _458
REMARK  189  A    between atoms: _458  and  _459
REMARK  190  A    between atoms: _458  and  _461
REMARK  191  A    between atoms: _461  and  _462
REMARK  192  A    between atoms: _466  and  _467
REMARK  193  A    between atoms: _472  and  _474
REMARK  194  A    between atoms: _474  and  _475
REMARK  195  A    between atoms: _474  and  _477
REMARK  196  A    between atoms: _480  and  _482
REMARK  197  A    between atoms: _482  and  _483
REMARK  198  A    between atoms: _482  and  _485
REMARK  199  A    between atoms: _485  and  _486
REMARK  200  A    between atoms: _491  and  _493
REMARK  201  A    between atoms: _493  and  _494
REMARK  202  A    between atoms: _493  and  _496
REMARK  203  A    between atoms: _496  and  _497
REMARK  204  A    between atoms: _500  and  _502
REMARK  205  A    between atoms: _502  and  _503
REMARK  206  A    between atoms: _502  and  _505
REMARK  207  A    between atoms: _505  and  _506
REMARK  208  A    between atoms: _509  and  _511
REMARK  209  A    between atoms: _511  and  _512
REMARK  210  A    between atoms: _514  and  _516
REMARK  211  A    between atoms: _516  and  _517
REMARK  212  A    between atoms: _516  and  _519
REMARK  213  A    between atoms: _519  and  _520
REMARK  214  A    between atoms: _520  and  _521
REMARK  215  A    between atoms: _521  and  _522
REMARK  216  A    between atoms: _531  and  _533
REMARK  217  A    between atoms: _533  and  _534
REMARK  218  A    between atoms: _533  and  _536
REMARK  219  A    between atoms: _536  and  _537
REMARK                            x       y       z     vdW  Elec       q    Type
REMARK                         _______ _______ _______ _____ _____    ______ ____
ROOT
ATOM      1  CA  ILE A   6      12.192  27.284  16.258  0.00  0.00    +0.149 C 
ENDROOT
BRANCH   1   3
ATOM      2  C   ASN A   5      11.045  26.049  14.501  0.00  0.00    +0.241 C 
ATOM      3  N   ILE A   6      11.158  27.133  15.256  0.00  0.00    -0.297 N 
ATOM      4  H   ILE A   6      10.476  27.907  15.123  0.00  0.00    +0.150 HD
ATOM      5  O   ASN A   5      11.703  25.020  14.687  0.00  0.00    -0.273 OA
BRANCH   2   6
ATOM      6  CA  ASN A   5      10.024  26.129  13.378  0.00  0.00    +0.158 C 
BRANCH   6   8
ATOM      7  C   VAL A   4      11.479  26.434  11.445  0.00  0.00    +0.241 C 
ATOM      8  N   ASN A   5      10.646  25.665  12.141  0.00  0.00    -0.297 N 
ATOM      9  H   ASN A   5      10.432  24.708  11.795  0.00  0.00    +0.150 HD
ATOM     10  O   VAL A   4      11.702  27.623  11.717  0.00  0.00    -0.273 OA
BRANCH   7  11
ATOM     11  CA  VAL A   4      12.173  25.769  10.280  0.00  0.00    +0.149 C 
BRANCH  11  13
ATOM     12  C   PRO A   3      12.011  26.345   7.925  0.00  0.00    +0.241 C 
ATOM     13  N   VAL A   4      12.263  26.705   9.177  0.00  0.00    -0.297 N 
ATOM     14  H   VAL A   4      12.534  27.690   9.373  0.00  0.00    +0.150 HD
ATOM     15  O   PRO A   3      11.595  25.223   7.615  0.00  0.00    -0.273 OA
BRANCH  12  22
ATOM     16  C   THR A   2      11.258  29.436   7.786  0.00  0.00    +0.246 C 
ATOM     17  O   THR A   2      10.129  28.969   7.673  0.00  0.00    -0.273 OA
ATOM     18  N   PRO A   3      12.361  28.766   7.392  0.00  0.00    -0.272 N 
ATOM     19  CD  PRO A   3      13.752  29.258   7.437  0.00  0.00    +0.094 C 
ATOM     20  CG  PRO A   3      14.569  28.052   7.055  0.00  0.00    +0.024 C 
ATOM     21  CB  PRO A   3      13.677  27.175   6.262  0.00  0.00    +0.031 C 
ATOM     22  CA  PRO A   3      12.283  27.398   6.853  0.00  0.00    +0.152 C 
BRANCH  16  23
ATOM     23  CA  THR A   2      11.449  30.818   8.422  0.00  0.00    +0.176 C 
BRANCH  23  25
ATOM     24  C   PRO A   1      10.456  32.539   6.985  0.00  0.00    +0.239 C 
ATOM     25  N   THR A   2      10.366  31.699   8.012  0.00  0.00    -0.295 N 
ATOM     26  H   THR A   2       9.476  31.670   8.550  0.00  0.00    +0.150 HD
ATOM     27  O   PRO A   1      11.509  32.785   6.387  0.00  0.00    -0.274 OA
BRANCH  24  32
ATOM     28  N   PRO A   1       8.577  34.083   7.610  0.00  0.00    -0.210 NA
ATOM     29  CD  PRO A   1       8.827  35.510   7.320  0.00  0.00    +0.089 C 
ATOM     30  CG  PRO A   1       9.547  35.493   5.998  0.00  0.00    +0.021 C 
ATOM     31  CB  PRO A   1       9.294  34.143   5.382  0.00  0.00    +0.028 C 
ATOM     32  CA  PRO A   1       9.131  33.205   6.578  0.00  0.00    +0.149 C 
ENDBRANCH  24  32
ENDBRANCH  23  25
BRANCH  23  33
ATOM     33  CB  THR A   2      11.499  30.661   9.972  0.00  0.00    +0.137 C 
ATOM     34  CG2 THR A   2      10.163  30.183  10.536  0.00  0.00    +0.034 C 
BRANCH  33  35
ATOM     35  OG1 THR A   2      12.510  29.712  10.317  0.00  0.00    -0.382 OA
ATOM     36  HG1 THR A   2      12.544  29.611  11.301  0.00  0.00    +0.210 HD
ENDBRANCH  33  35
ENDBRANCH  23  33
ENDBRANCH  16  23
ENDBRANCH  12  22
ENDBRANCH  11  13
BRANCH  11  37
ATOM     37  CB  VAL A   4      13.580  25.289  10.718  0.00  0.00    +0.027 C 
ATOM     38  CG2 VAL A   4      13.492  24.353  11.910  0.00  0.00    +0.002 C 
ATOM     39  CG1 VAL A   4      14.290  24.594   9.565  0.00  0.00    +0.002 C 
ENDBRANCH  11  37
ENDBRANCH   7  11
ENDBRANCH   6   8
BRANCH   6  40
ATOM     40  CB  ASN A   5       8.792  25.284  13.735  0.00  0.00    +0.114 C 
BRANCH  40  41
ATOM     41  CG  ASN A   5       7.682  25.412  12.720  0.00  0.00    +0.222 C 
ATOM     42  OD1 ASN A   5       7.102  26.488  12.548  0.00  0.00    -0.275 OA
ATOM     43  ND2 ASN A   5       7.370  24.313  12.042  0.00  0.00    -0.329 N 
ATOM     44 HD21 ASN A   5       7.886  23.428  12.220  0.00  0.00    +0.145 HD
ATOM     45 HD22 ASN A   5       6.610  24.338  11.333  0.00  0.00    +0.145 HD
ENDBRANCH  40  41
ENDBRANCH   6  40
ENDBRANCH   2   6
ENDBRANCH   1   3
BRANCH   1  46
ATOM     46  C   ILE A   6      11.547  27.588  17.608  0.00  0.00    +0.241 C 
ATOM     47  N   ILE A   7      11.735  26.681  18.564  0.00  0.00    -0.297 N 
ATOM     48  H   ILE A   7      12.190  25.778  18.319  0.00  0.00    +0.150 HD
ATOM     49  O   ILE A   6      10.881  28.621  17.771  0.00  0.00    -0.273 OA
BRANCH  47  50
ATOM     50  CA  ILE A   7      11.323  26.912  19.948  0.00  0.00    +0.149 C 
BRANCH  50  51
ATOM     51  C   ILE A   7      12.458  27.595  20.697  0.00  0.00    +0.241 C 
ATOM     52  N   GLY A   8      12.241  28.866  21.043  0.00  0.00    -0.295 N 
ATOM     53  H   GLY A   8      11.305  29.280  20.861  0.00  0.00    +0.150 HD
ATOM     54  O   ILE A   7      13.505  26.984  20.948  0.00  0.00    -0.273 OA
BRANCH  52  55
ATOM     55  CA  GLY A   8      13.263  29.695  21.665  0.00  0.00    +0.176 C 
BRANCH  55  56
ATOM     56  C   GLY A   8      13.242  29.659  23.184  0.00  0.00    +0.243 C 
ATOM     57  O   GLY A   8      12.373  29.032  23.795  0.00  0.00    -0.273 OA
ATOM     58  N   ARG A   9      14.199  30.359  23.794  0.00  0.00    -0.297 N 
ATOM     59  H   ARG A   9      14.844  30.936  23.218  0.00  0.00    +0.150 HD
BRANCH  58  60
ATOM     60  CA  ARG A   9      14.373  30.342  25.255  0.00  0.00    +0.149 C 
BRANCH  60  61
ATOM     61  C   ARG A   9      13.139  30.784  26.049  0.00  0.00    +0.241 C 
ATOM     62  O   ARG A   9      12.899  30.266  27.142  0.00  0.00    -0.273 OA
ATOM     63  N   ASN A  10      12.355  31.716  25.501  0.00  0.00    -0.298 N 
ATOM     64  H   ASN A  10      12.615  32.116  24.577  0.00  0.00    +0.150 HD
BRANCH  63  65
ATOM     65  CA  ASN A  10      11.135  32.192  26.169  0.00  0.00    +0.146 C 
BRANCH  65  66
ATOM     66  C   ASN A  10      10.169  31.047  26.522  0.00  0.00    +0.227 C 
ATOM     67  O   ASN A  10       9.501  31.096  27.548  0.00  0.00    -0.286 OA
ENDBRANCH  65  66
BRANCH  65  68
ATOM     68  CB  ASN A  10      10.422  33.268  25.332  0.00  0.00    +0.112 C 
BRANCH  68  69
ATOM     69  CG  ASN A  10       9.754  32.704  24.087  0.00  0.00    +0.222 C 
ATOM     70  ND2 ASN A  10       8.455  32.962  23.950  0.00  0.00    -0.329 N 
ATOM     71 HD21 ASN A  10       7.954  33.508  24.679  0.00  0.00    +0.145 HD
ATOM     72 HD22 ASN A  10       7.942  32.617  23.114  0.00  0.00    +0.145 HD
ATOM     73  OD1 ASN A  10      10.397  32.061  23.252  0.00  0.00    -0.275 OA
ENDBRANCH  68  69
ENDBRANCH  65  68
ENDBRANCH  63  65
ENDBRANCH  60  61
BRANCH  60  74
ATOM     74  CB  ARG A   9      15.585  31.181  25.669  0.00  0.00    +0.033 C 
BRANCH  74  75
ATOM     75  CG  ARG A   9      16.909  30.594  25.233  0.00  0.00    +0.045 C 
BRANCH  75  76
ATOM     76  CD  ARG A   9      18.092  31.370  25.803  0.00  0.00    +0.174 C 
BRANCH  76  77
ATOM     77  NE  ARG A   9      18.121  32.754  25.329  0.00  0.00    -0.265 N 
ATOM     78  CZ  ARG A   9      17.751  33.825  26.031  0.00  0.00    +0.342 C 
ATOM     79  NH2 ARG A   9      17.309  33.729  27.279  0.00  0.00    -0.292 N 
ATOM     80 HH21 ARG A   9      17.028  34.585  27.799  0.00  0.00    +0.255 HD
ATOM     81 HH22 ARG A   9      17.243  32.798  27.737  0.00  0.00    +0.255 HD
ATOM     82  NH1 ARG A   9      17.826  35.026  25.465  0.00  0.00    -0.292 N 
ATOM     83 HH11 ARG A   9      17.541  35.871  25.999  0.00  0.00    +0.255 HD
ATOM     84 HH12 ARG A   9      18.170  35.120  24.488  0.00  0.00    +0.255 HD
ATOM     85  HE  ARG A   9      18.460  32.916  24.359  0.00  0.00    +0.259 HD
ENDBRANCH  76  77
ENDBRANCH  75  76
ENDBRANCH  74  75
ENDBRANCH  60  74
ENDBRANCH  58  60
ENDBRANCH  55  56
ENDBRANCH  52  55
ENDBRANCH  50  51
BRANCH  50  86
ATOM     86  CB  ILE A   7      10.943  25.602  20.659  0.00  0.00    +0.027 C 
ATOM     87  CG2 ILE A   7      10.511  25.875  22.090  0.00  0.00    +0.002 C 
BRANCH  86  88
ATOM     88  CG1 ILE A   7       9.830  24.882  19.887  0.00  0.00    +0.002 C 
ATOM     89  CD1 ILE A   7       8.580  25.730  19.621  0.00  0.00    +0.000 C 
ENDBRANCH  86  88
ENDBRANCH  50  86
ENDBRANCH  47  50
ENDBRANCH   1  46
BRANCH   1  90
ATOM     90  CB  ILE A   6      13.154  28.426  15.870  0.00  0.00    +0.027 C 
ATOM     91  CG2 ILE A   6      14.169  28.675  16.967  0.00  0.00    +0.002 C 
BRANCH  90  92
ATOM     92  CG1 ILE A   6      13.885  28.102  14.559  0.00  0.00    +0.002 C 
ATOM     93  CD1 ILE A   6      14.314  29.337  13.795  0.00  0.00    +0.000 C 
ENDBRANCH  90  92
ENDBRANCH   1  90
TORSDOF 33
REMARK  Name = ../refined-set-2016/2qi3/2qi3_pocket.pdb
REMARK  219 active torsions:
REMARK  status: ('A' for Active; 'I' for Inactive)
REMARK    1  A    between atoms: _1  and  _3
REMARK    2  A    between atoms: _3  and  _4
REMARK    3  A    between atoms: _3  and  _6
REMARK    4  A    between atoms: _6  and  _7
REMARK    5  A    between atoms: _7  and  _8
REMARK    6  A    between atoms: _8  and  _9
REMARK    7  A    between atoms: _18  and  _20
REMARK    8  A    between atoms: _20  and  _21
REMARK    9  A    between atoms: _20  and  _23
REMARK   10  A    between atoms: _23  and  _24
REMARK   11  A    between atoms: _27  and  _29
REMARK   12  A    between atoms: _29  and  _30
REMARK   13  A    between atoms: _29  and  _32
REMARK   14  A    between atoms: _32  and  _33
REMARK   15  A    between atoms: _36  and  _38
REMARK   16  A    between atoms: _38  and  _39
REMARK   17  A    between atoms: _38  and  _41
REMARK   18  A    between atoms: _41  and  _42
REMARK   19  A    between atoms: _45  and  _47
REMARK   20  A    between atoms: _47  and  _48
REMARK   21  A    between atoms: _47  and  _50
REMARK   22  A    between atoms: _50  and  _51
REMARK   23  A    between atoms: _54  and  _56
REMARK   24  A    between atoms: _56  and  _57
REMARK   25  A    between atoms: _59  and  _61
REMARK   26  A    between atoms: _61  and  _62
REMARK   27  A    between atoms: _65  and  _67
REMARK   28  A    between atoms: _67  and  _68
REMARK   29  A    between atoms: _67  and  _70
REMARK   30  A    between atoms: _70  and  _71
REMARK   31  A    between atoms: _74  and  _76
REMARK   32  A    between atoms: _76  and  _77
REMARK   33  A    between atoms: _76  and  _79
REMARK   34  A    between atoms: _79  and  _80
REMARK   35  A    between atoms: _83  and  _85
REMARK   36  A    between atoms: _85  and  _86
REMARK   37  A    between atoms: _85  and  _88
REMARK   38  A    between atoms: _88  and  _89
REMARK   39  A    between atoms: _92  and  _94
REMARK   40  A    between atoms: _94  and  _95
REMARK   41  A    between atoms: _94  and  _97
REMARK   42  A    between atoms: _100  and  _102
REMARK   43  A    between atoms: _102  and  _103
REMARK   44  A    between atoms: _102  and  _105
REMARK   45  A    between atoms: _105  and  _106
REMARK   46  A    between atoms: _106  and  _107
REMARK   47  A    between atoms: _109  and  _111
REMARK   48  A    between atoms: _111  and  _112
REMARK   49  A    between atoms: _111  and  _114
REMARK   50  A    between atoms: _114  and  _115
REMARK   51  A    between atoms: _118  and  _120
REMARK   52  A    between atoms: _120  and  _121
REMARK   53  A    between atoms: _123  and  _125
REMARK   54  A    between atoms: _125  and  _126
REMARK   55  A    between atoms: _128  and  _130
REMARK   56  A    between atoms: _130  and  _131
REMARK   57  A    between atoms: _130  and  _133
REMARK   58  A    between atoms: _133  and  _134
REMARK   59  A    between atoms: _137  and  _139
REMARK   60  A    between atoms: _139  and  _140
REMARK   61  A    between atoms: _142  and  _144
REMARK   62  A    between atoms: _144  and  _145
REMARK   63  A    between atoms: _147  and  _149
REMARK   64  A    between atoms: _149  and  _150
REMARK   65  A    between atoms: _149  and  _152
REMARK   66  A    between atoms: _152  and  _153
REMARK   67  A    between atoms: _159  and  _161
REMARK   68  A    between atoms: _161  and  _162
REMARK   69  A    between atoms: _161  and  _164
REMARK   70  A    between atoms: _164  and  _165
REMARK   71  A    between atoms: _168  and  _170
REMARK   72  A    between atoms: _170  and  _171
REMARK   73  A    between atoms: _170  and  _173
REMARK   74  A    between atoms: _173  and  _174
REMARK   75  A    between atoms: _177  and  _179
REMARK   76  A    between atoms: _179  and  _180
REMARK   77  A    between atoms: _179  and  _182
REMARK   78  A    between atoms: _182  and  _183
REMARK   79  A    between atoms: _187  and  _188
REMARK   80  A    between atoms: _193  and  _195
REMARK   81  A    between atoms: _195  and  _196
REMARK   82  A    between atoms: _195  and  _198
REMARK   83  A    between atoms: _201  and  _203
REMARK   84  A    between atoms: _203  and  _204
REMARK   85  A    between atoms: _203  and  _206
REMARK   86  A    between atoms: _206  and  _207
REMARK   87  A    between atoms: _212  and  _214
REMARK   88  A    between atoms: _214  and  _215
REMARK   89  A    between atoms: _214  and  _217
REMARK   90  A    between atoms: _217  and  _218
REMARK   91  A    between atoms: _221  and  _223
REMARK   92  A    between atoms: _223  and  _224
REMARK   93  A    between atoms: _223  and  _226
REMARK   94  A    between atoms: _226  and  _227
REMARK   95  A    between atoms: _230  and  _232
REMARK   96  A    between atoms: _232  and  _233
REMARK   97  A    between atoms: _235  and  _237
REMARK   98  A    between atoms: _237  and  _238
REMARK   99  A    between atoms: _237  and  _240
REMARK  100  A    between atoms: _240  and  _241
REMARK  101  A    between atoms: _241  and  _242
REMARK  102  A    between atoms: _242  and  _243
REMARK  103  A    between atoms: _252  and  _254
REMARK  104  A    between atoms: _254  and  _255
REMARK  105  A    between atoms: _254  and  _257
REMARK  106  A    between atoms: _257  and  _258
REMARK  107  A    between atoms: _258  and  _259
REMARK  108  A    between atoms: _259  and  _260
REMARK  109  A    between atoms: _269  and  _271
REMARK  110  A    between atoms: _271  and  _272
REMARK  111  A    between atoms: _271  and  _274
REMARK  112  A    between atoms: _274  and  _275
REMARK  113  A    between atoms: _278  and  _280
REMARK  114  A    between atoms: _280  and  _281
REMARK  115  A    between atoms: _280  and  _283
REMARK  116  A    between atoms: _283  and  _284
REMARK  117  A    between atoms: _287  and  _289
REMARK  118  A    between atoms: _289  and  _290
REMARK  119  A    between atoms: _289  and  _292
REMARK  120  A    between atoms: _292  and  _293
REMARK  121  A    between atoms: _296  and  _298
REMARK  122  A    between atoms: _298  and  _299
REMARK  123  A    between atoms: _298  and  _301
REMARK  124  A    between atoms: _301  and  _302
REMARK  125  A    between atoms: _305  and  _307
REMARK  126  A    between atoms: _307  and  _308
REMARK  127  A    between atoms: _310  and  _312
REMARK  128  A    between atoms: _312  and  _313
REMARK  129  A    between atoms: _316  and  _318
REMARK  130  A    between atoms: _318  and  _319
REMARK  131  A    between atoms: _318  and  _321
REMARK  132  A    between atoms: _321  and  _322
REMARK  133  A    between atoms: _325  and  _327
REMARK  134  A    between atoms: _327  and  _328
REMARK  135  A    between atoms: _327  and  _330
REMARK  136  A    between atoms: _330  and  _331
REMARK  137  A    between atoms: _334  and  _336
REMARK  138  A    between atoms: _336  and  _337
REMARK  139  A    between atoms: _336  and  _339
REMARK  140  A    between atoms: _339  and  _340
REMARK  141  A    between atoms: _343  and  _345
REMARK  142  A    between atoms: _345  and  _346
REMARK  143  A    between atoms: _345  and  _348
REMARK  144  A    between atoms: _351  and  _353
REMARK  145  A    between atoms: _353  and  _354
REMARK  146  A    between atoms: _353  and  _356
REMARK  147  A    between atoms: _356  and  _357
REMARK  148  A    between atoms: _357  and  _358
REMARK  149  A    between atoms: _358  and  _359
REMARK  150  A    between atoms: _359  and  _360
REMARK  151  A    between atoms: _364  and  _366
REMARK  152  A    between atoms: _366  and  _367
REMARK  153  A    between atoms: _366  and  _369
REMARK  154  A    between atoms: _369  and  _370
REMARK  155  A    between atoms: _370  and  _371
REMARK  156  A    between atoms: _373  and  _375
REMARK  157  A    between atoms: _375  and  _376
REMARK  158  A    between atoms: _375  and  _378
REMARK  159  A    between atoms: _378  and  _379
REMARK  160  A    between atoms: _382  and  _384
REMARK  161  A    between atoms: _384  and  _385
REMARK  162  A    between atoms: _387  and  _389
REMARK  163  A    between atoms: _389  and  _390
REMARK  164  A    between atoms: _392  and  _394
REMARK  165  A    between atoms: _394  and  _395
REMARK  166  A    between atoms: _394  and  _397
REMARK  167  A    between atoms: _397  and  _398
REMARK  168  A    between atoms: _401  and  _403
REMARK  169  A    between atoms: _403  and  _404
REMARK  170  A    between atoms: _406  and  _408
REMARK  171  A    between atoms: _408  and  _409
REMARK  172  A    between atoms: _411  and  _413
REMARK  173  A    between atoms: _413  and  _414
REMARK  174  A    between atoms: _413  and  _416
REMARK  175  A    between atoms: _416  and  _417
REMARK  176  A    between atoms: _423  and  _425
REMARK  177  A    between atoms: _425  and  _426
REMARK  178  A    between atoms: _425  and  _428
REMARK  179  A    between atoms: _428  and  _429
REMARK  180  A    between atoms: _432  and  _434
REMARK  181  A    between atoms: _434  and  _435
REMARK  182  A    between atoms: _434  and  _437
REMARK  183  A    between atoms: _440  and  _442
REMARK  184  A    between atoms: _442  and  _443
REMARK  185  A    between atoms: _442  and  _445
REMARK  186  A    between atoms: _445  and  _446
REMARK  187  A    between atoms: _450  and  _451
REMARK  188  A    between atoms: _456  and  _458
REMARK  189  A    between atoms: _458  and  _459
REMARK  190  A    between atoms: _458  and  _461
REMARK  191  A    between atoms: _461  and  _462
REMARK  192  A    between atoms: _466  and  _467
REMARK  193  A    between atoms: _472  and  _474
REMARK  194  A    between atoms: _474  and  _475
REMARK  195  A    between atoms: _474  and  _477
REMARK  196  A    between atoms: _480  and  _482
REMARK  197  A    between atoms: _482  and  _483
REMARK  198  A    between atoms: _482  and  _485
REMARK  199  A    between atoms: _485  and  _486
REMARK  200  A    between atoms: _491  and  _493
REMARK  201  A    between atoms: _493  and  _494
REMARK  202  A    between atoms: _493  and  _496
REMARK  203  A    between atoms: _496  and  _497
REMARK  204  A    between atoms: _500  and  _502
REMARK  205  A    between atoms: _502  and  _503
REMARK  206  A    between atoms: _502  and  _505
REMARK  207  A    between atoms: _505  and  _506
REMARK  208  A    between atoms: _509  and  _511
REMARK  209  A    between atoms: _511  and  _512
REMARK  210  A    between atoms: _514  and  _516
REMARK  211  A    between atoms: _516  and  _517
REMARK  212  A    between atoms: _516  and  _519
REMARK  213  A    between atoms: _519  and  _520
REMARK  214  A    between atoms: _520  and  _521
REMARK  215  A    between atoms: _521  and  _522
REMARK  216  A    between atoms: _531  and  _533
REMARK  217  A    between atoms: _533  and  _534
REMARK  218  A    between atoms: _533  and  _536
REMARK  219  A    between atoms: _536  and  _537
REMARK                            x       y       z     vdW  Elec       q    Type
REMARK                         _______ _______ _______ _____ _____    ______ ____
ROOT
ATOM      1  O   HOH     1      19.755  22.947  12.772  0.00  0.00    +0.000 OA
ENDROOT
TORSDOF 0
REMARK  Name = ../refined-set-2016/2qi3/2qi3_pocket.pdb
REMARK  219 active torsions:
REMARK  status: ('A' for Active; 'I' for Inactive)
REMARK    1  A    between atoms: _1  and  _3
REMARK    2  A    between atoms: _3  and  _4
REMARK    3  A    between atoms: _3  and  _6
REMARK    4  A    between atoms: _6  and  _7
REMARK    5  A    between atoms: _7  and  _8
REMARK    6  A    between atoms: _8  and  _9
REMARK    7  A    between atoms: _18  and  _20
REMARK    8  A    between atoms: _20  and  _21
REMARK    9  A    between atoms: _20  and  _23
REMARK   10  A    between atoms: _23  and  _24
REMARK   11  A    between atoms: _27  and  _29
REMARK   12  A    between atoms: _29  and  _30
REMARK   13  A    between atoms: _29  and  _32
REMARK   14  A    between atoms: _32  and  _33
REMARK   15  A    between atoms: _36  and  _38
REMARK   16  A    between atoms: _38  and  _39
REMARK   17  A    between atoms: _38  and  _41
REMARK   18  A    between atoms: _41  and  _42
REMARK   19  A    between atoms: _45  and  _47
REMARK   20  A    between atoms: _47  and  _48
REMARK   21  A    between atoms: _47  and  _50
REMARK   22  A    between atoms: _50  and  _51
REMARK   23  A    between atoms: _54  and  _56
REMARK   24  A    between atoms: _56  and  _57
REMARK   25  A    between atoms: _59  and  _61
REMARK   26  A    between atoms: _61  and  _62
REMARK   27  A    between atoms: _65  and  _67
REMARK   28  A    between atoms: _67  and  _68
REMARK   29  A    between atoms: _67  and  _70
REMARK   30  A    between atoms: _70  and  _71
REMARK   31  A    between atoms: _74  and  _76
REMARK   32  A    between atoms: _76  and  _77
REMARK   33  A    between atoms: _76  and  _79
REMARK   34  A    between atoms: _79  and  _80
REMARK   35  A    between atoms: _83  and  _85
REMARK   36  A    between atoms: _85  and  _86
REMARK   37  A    between atoms: _85  and  _88
REMARK   38  A    between atoms: _88  and  _89
REMARK   39  A    between atoms: _92  and  _94
REMARK   40  A    between atoms: _94  and  _95
REMARK   41  A    between atoms: _94  and  _97
REMARK   42  A    between atoms: _100  and  _102
REMARK   43  A    between atoms: _102  and  _103
REMARK   44  A    between atoms: _102  and  _105
REMARK   45  A    between atoms: _105  and  _106
REMARK   46  A    between atoms: _106  and  _107
REMARK   47  A    between atoms: _109  and  _111
REMARK   48  A    between atoms: _111  and  _112
REMARK   49  A    between atoms: _111  and  _114
REMARK   50  A    between atoms: _114  and  _115
REMARK   51  A    between atoms: _118  and  _120
REMARK   52  A    between atoms: _120  and  _121
REMARK   53  A    between atoms: _123  and  _125
REMARK   54  A    between atoms: _125  and  _126
REMARK   55  A    between atoms: _128  and  _130
REMARK   56  A    between atoms: _130  and  _131
REMARK   57  A    between atoms: _130  and  _133
REMARK   58  A    between atoms: _133  and  _134
REMARK   59  A    between atoms: _137  and  _139
REMARK   60  A    between atoms: _139  and  _140
REMARK   61  A    between atoms: _142  and  _144
REMARK   62  A    between atoms: _144  and  _145
REMARK   63  A    between atoms: _147  and  _149
REMARK   64  A    between atoms: _149  and  _150
REMARK   65  A    between atoms: _149  and  _152
REMARK   66  A    between atoms: _152  and  _153
REMARK   67  A    between atoms: _159  and  _161
REMARK   68  A    between atoms: _161  and  _162
REMARK   69  A    between atoms: _161  and  _164
REMARK   70  A    between atoms: _164  and  _165
REMARK   71  A    between atoms: _168  and  _170
REMARK   72  A    between atoms: _170  and  _171
REMARK   73  A    between atoms: _170  and  _173
REMARK   74  A    between atoms: _173  and  _174
REMARK   75  A    between atoms: _177  and  _179
REMARK   76  A    between atoms: _179  and  _180
REMARK   77  A    between atoms: _179  and  _182
REMARK   78  A    between atoms: _182  and  _183
REMARK   79  A    between atoms: _187  and  _188
REMARK   80  A    between atoms: _193  and  _195
REMARK   81  A    between atoms: _195  and  _196
REMARK   82  A    between atoms: _195  and  _198
REMARK   83  A    between atoms: _201  and  _203
REMARK   84  A    between atoms: _203  and  _204
REMARK   85  A    between atoms: _203  and  _206
REMARK   86  A    between atoms: _206  and  _207
REMARK   87  A    between atoms: _212  and  _214
REMARK   88  A    between atoms: _214  and  _215
REMARK   89  A    between atoms: _214  and  _217
REMARK   90  A    between atoms: _217  and  _218
REMARK   91  A    between atoms: _221  and  _223
REMARK   92  A    between atoms: _223  and  _224
REMARK   93  A    between atoms: _223  and  _226
REMARK   94  A    between atoms: _226  and  _227
REMARK   95  A    between atoms: _230  and  _232
REMARK   96  A    between atoms: _232  and  _233
REMARK   97  A    between atoms: _235  and  _237
REMARK   98  A    between atoms: _237  and  _238
REMARK   99  A    between atoms: _237  and  _240
REMARK  100  A    between atoms: _240  and  _241
REMARK  101  A    between atoms: _241  and  _242
REMARK  102  A    between atoms: _242  and  _243
REMARK  103  A    between atoms: _252  and  _254
REMARK  104  A    between atoms: _254  and  _255
REMARK  105  A    between atoms: _254  and  _257
REMARK  106  A    between atoms: _257  and  _258
REMARK  107  A    between atoms: _258  and  _259
REMARK  108  A    between atoms: _259  and  _260
REMARK  109  A    between atoms: _269  and  _271
REMARK  110  A    between atoms: _271  and  _272
REMARK  111  A    between atoms: _271  and  _274
REMARK  112  A    between atoms: _274  and  _275
REMARK  113  A    between atoms: _278  and  _280
REMARK  114  A    between atoms: _280  and  _281
REMARK  115  A    between atoms: _280  and  _283
REMARK  116  A    between atoms: _283  and  _284
REMARK  117  A    between atoms: _287  and  _289
REMARK  118  A    between atoms: _289  and  _290
REMARK  119  A    between atoms: _289  and  _292
REMARK  120  A    between atoms: _292  and  _293
REMARK  121  A    between atoms: _296  and  _298
REMARK  122  A    between atoms: _298  and  _299
REMARK  123  A    between atoms: _298  and  _301
REMARK  124  A    between atoms: _301  and  _302
REMARK  125  A    between atoms: _305  and  _307
REMARK  126  A    between atoms: _307  and  _308
REMARK  127  A    between atoms: _310  and  _312
REMARK  128  A    between atoms: _312  and  _313
REMARK  129  A    between atoms: _316  and  _318
REMARK  130  A    between atoms: _318  and  _319
REMARK  131  A    between atoms: _318  and  _321
REMARK  132  A    between atoms: _321  and  _322
REMARK  133  A    between atoms: _325  and  _327
REMARK  134  A    between atoms: _327  and  _328
REMARK  135  A    between atoms: _327  and  _330
REMARK  136  A    between atoms: _330  and  _331
REMARK  137  A    between atoms: _334  and  _336
REMARK  138  A    between atoms: _336  and  _337
REMARK  139  A    between atoms: _336  and  _339
REMARK  140  A    between atoms: _339  and  _340
REMARK  141  A    between atoms: _343  and  _345
REMARK  142  A    between atoms: _345  and  _346
REMARK  143  A    between atoms: _345  and  _348
REMARK  144  A    between atoms: _351  and  _353
REMARK  145  A    between atoms: _353  and  _354
REMARK  146  A    between atoms: _353  and  _356
REMARK  147  A    between atoms: _356  and  _357
REMARK  148  A    between atoms: _357  and  _358
REMARK  149  A    between atoms: _358  and  _359
REMARK  150  A    between atoms: _359  and  _360
REMARK  151  A    between atoms: _364  and  _366
REMARK  152  A    between atoms: _366  and  _367
REMARK  153  A    between atoms: _366  and  _369
REMARK  154  A    between atoms: _369  and  _370
REMARK  155  A    between atoms: _370  and  _371
REMARK  156  A    between atoms: _373  and  _375
REMARK  157  A    between atoms: _375  and  _376
REMARK  158  A    between atoms: _375  and  _378
REMARK  159  A    between atoms: _378  and  _379
REMARK  160  A    between atoms: _382  and  _384
REMARK  161  A    between atoms: _384  and  _385
REMARK  162  A    between atoms: _387  and  _389
REMARK  163  A    between atoms: _389  and  _390
REMARK  164  A    between atoms: _392  and  _394
REMARK  165  A    between atoms: _394  and  _395
REMARK  166  A    between atoms: _394  and  _397
REMARK  167  A    between atoms: _397  and  _398
REMARK  168  A    between atoms: _401  and  _403
REMARK  169  A    between atoms: _403  and  _404
REMARK  170  A    between atoms: _406  and  _408
REMARK  171  A    between atoms: _408  and  _409
REMARK  172  A    between atoms: _411  and  _413
REMARK  173  A    between atoms: _413  and  _414
REMARK  174  A    between atoms: _413  and  _416
REMARK  175  A    between atoms: _416  and  _417
REMARK  176  A    between atoms: _423  and  _425
REMARK  177  A    between atoms: _425  and  _426
REMARK  178  A    between atoms: _425  and  _428
REMARK  179  A    between atoms: _428  and  _429
REMARK  180  A    between atoms: _432  and  _434
REMARK  181  A    between atoms: _434  and  _435
REMARK  182  A    between atoms: _434  and  _437
REMARK  183  A    between atoms: _440  and  _442
REMARK  184  A    between atoms: _442  and  _443
REMARK  185  A    between atoms: _442  and  _445
REMARK  186  A    between atoms: _445  and  _446
REMARK  187  A    between atoms: _450  and  _451
REMARK  188  A    between atoms: _456  and  _458
REMARK  189  A    between atoms: _458  and  _459
REMARK  190  A    between atoms: _458  and  _461
REMARK  191  A    between atoms: _461  and  _462
REMARK  192  A    between atoms: _466  and  _467
REMARK  193  A    between atoms: _472  and  _474
REMARK  194  A    between atoms: _474  and  _475
REMARK  195  A    between atoms: _474  and  _477
REMARK  196  A    between atoms: _480  and  _482
REMARK  197  A    between atoms: _482  and  _483
REMARK  198  A    between atoms: _482  and  _485
REMARK  199  A    between atoms: _485  and  _486
REMARK  200  A    between atoms: _491  and  _493
REMARK  201  A    between atoms: _493  and  _494
REMARK  202  A    between atoms: _493  and  _496
REMARK  203  A    between atoms: _496  and  _497
REMARK  204  A    between atoms: _500  and  _502
REMARK  205  A    between atoms: _502  and  _503
REMARK  206  A    between atoms: _502  and  _505
REMARK  207  A    between atoms: _505  and  _506
REMARK  208  A    between atoms: _509  and  _511
REMARK  209  A    between atoms: _511  and  _512
REMARK  210  A    between atoms: _514  and  _516
REMARK  211  A    between atoms: _516  and  _517
REMARK  212  A    between atoms: _516  and  _519
REMARK  213  A    between atoms: _519  and  _520
REMARK  214  A    between atoms: _520  and  _521
REMARK  215  A    between atoms: _521  and  _522
REMARK  216  A    between atoms: _531  and  _533
REMARK  217  A    between atoms: _533  and  _534
REMARK  218  A    between atoms: _533  and  _536
REMARK  219  A    between atoms: _536  and  _537
REMARK                            x       y       z     vdW  Elec       q    Type
REMARK                         _______ _______ _______ _____ _____    ______ ____
ROOT
ATOM      1  O   HOH     1      26.055  25.456   9.305  0.00  0.00    +0.000 OA
ENDROOT
TORSDOF 0
REMARK  Name = ../refined-set-2016/2qi3/2qi3_pocket.pdb
REMARK  219 active torsions:
REMARK  status: ('A' for Active; 'I' for Inactive)
REMARK    1  A    between atoms: _1  and  _3
REMARK    2  A    between atoms: _3  and  _4
REMARK    3  A    between atoms: _3  and  _6
REMARK    4  A    between atoms: _6  and  _7
REMARK    5  A    between atoms: _7  and  _8
REMARK    6  A    between atoms: _8  and  _9
REMARK    7  A    between atoms: _18  and  _20
REMARK    8  A    between atoms: _20  and  _21
REMARK    9  A    between atoms: _20  and  _23
REMARK   10  A    between atoms: _23  and  _24
REMARK   11  A    between atoms: _27  and  _29
REMARK   12  A    between atoms: _29  and  _30
REMARK   13  A    between atoms: _29  and  _32
REMARK   14  A    between atoms: _32  and  _33
REMARK   15  A    between atoms: _36  and  _38
REMARK   16  A    between atoms: _38  and  _39
REMARK   17  A    between atoms: _38  and  _41
REMARK   18  A    between atoms: _41  and  _42
REMARK   19  A    between atoms: _45  and  _47
REMARK   20  A    between atoms: _47  and  _48
REMARK   21  A    between atoms: _47  and  _50
REMARK   22  A    between atoms: _50  and  _51
REMARK   23  A    between atoms: _54  and  _56
REMARK   24  A    between atoms: _56  and  _57
REMARK   25  A    between atoms: _59  and  _61
REMARK   26  A    between atoms: _61  and  _62
REMARK   27  A    between atoms: _65  and  _67
REMARK   28  A    between atoms: _67  and  _68
REMARK   29  A    between atoms: _67  and  _70
REMARK   30  A    between atoms: _70  and  _71
REMARK   31  A    between atoms: _74  and  _76
REMARK   32  A    between atoms: _76  and  _77
REMARK   33  A    between atoms: _76  and  _79
REMARK   34  A    between atoms: _79  and  _80
REMARK   35  A    between atoms: _83  and  _85
REMARK   36  A    between atoms: _85  and  _86
REMARK   37  A    between atoms: _85  and  _88
REMARK   38  A    between atoms: _88  and  _89
REMARK   39  A    between atoms: _92  and  _94
REMARK   40  A    between atoms: _94  and  _95
REMARK   41  A    between atoms: _94  and  _97
REMARK   42  A    between atoms: _100  and  _102
REMARK   43  A    between atoms: _102  and  _103
REMARK   44  A    between atoms: _102  and  _105
REMARK   45  A    between atoms: _105  and  _106
REMARK   46  A    between atoms: _106  and  _107
REMARK   47  A    between atoms: _109  and  _111
REMARK   48  A    between atoms: _111  and  _112
REMARK   49  A    between atoms: _111  and  _114
REMARK   50  A    between atoms: _114  and  _115
REMARK   51  A    between atoms: _118  and  _120
REMARK   52  A    between atoms: _120  and  _121
REMARK   53  A    between atoms: _123  and  _125
REMARK   54  A    between atoms: _125  and  _126
REMARK   55  A    between atoms: _128  and  _130
REMARK   56  A    between atoms: _130  and  _131
REMARK   57  A    between atoms: _130  and  _133
REMARK   58  A    between atoms: _133  and  _134
REMARK   59  A    between atoms: _137  and  _139
REMARK   60  A    between atoms: _139  and  _140
REMARK   61  A    between atoms: _142  and  _144
REMARK   62  A    between atoms: _144  and  _145
REMARK   63  A    between atoms: _147  and  _149
REMARK   64  A    between atoms: _149  and  _150
REMARK   65  A    between atoms: _149  and  _152
REMARK   66  A    between atoms: _152  and  _153
REMARK   67  A    between atoms: _159  and  _161
REMARK   68  A    between atoms: _161  and  _162
REMARK   69  A    between atoms: _161  and  _164
REMARK   70  A    between atoms: _164  and  _165
REMARK   71  A    between atoms: _168  and  _170
REMARK   72  A    between atoms: _170  and  _171
REMARK   73  A    between atoms: _170  and  _173
REMARK   74  A    between atoms: _173  and  _174
REMARK   75  A    between atoms: _177  and  _179
REMARK   76  A    between atoms: _179  and  _180
REMARK   77  A    between atoms: _179  and  _182
REMARK   78  A    between atoms: _182  and  _183
REMARK   79  A    between atoms: _187  and  _188
REMARK   80  A    between atoms: _193  and  _195
REMARK   81  A    between atoms: _195  and  _196
REMARK   82  A    between atoms: _195  and  _198
REMARK   83  A    between atoms: _201  and  _203
REMARK   84  A    between atoms: _203  and  _204
REMARK   85  A    between atoms: _203  and  _206
REMARK   86  A    between atoms: _206  and  _207
REMARK   87  A    between atoms: _212  and  _214
REMARK   88  A    between atoms: _214  and  _215
REMARK   89  A    between atoms: _214  and  _217
REMARK   90  A    between atoms: _217  and  _218
REMARK   91  A    between atoms: _221  and  _223
REMARK   92  A    between atoms: _223  and  _224
REMARK   93  A    between atoms: _223  and  _226
REMARK   94  A    between atoms: _226  and  _227
REMARK   95  A    between atoms: _230  and  _232
REMARK   96  A    between atoms: _232  and  _233
REMARK   97  A    between atoms: _235  and  _237
REMARK   98  A    between atoms: _237  and  _238
REMARK   99  A    between atoms: _237  and  _240
REMARK  100  A    between atoms: _240  and  _241
REMARK  101  A    between atoms: _241  and  _242
REMARK  102  A    between atoms: _242  and  _243
REMARK  103  A    between atoms: _252  and  _254
REMARK  104  A    between atoms: _254  and  _255
REMARK  105  A    between atoms: _254  and  _257
REMARK  106  A    between atoms: _257  and  _258
REMARK  107  A    between atoms: _258  and  _259
REMARK  108  A    between atoms: _259  and  _260
REMARK  109  A    between atoms: _269  and  _271
REMARK  110  A    between atoms: _271  and  _272
REMARK  111  A    between atoms: _271  and  _274
REMARK  112  A    between atoms: _274  and  _275
REMARK  113  A    between atoms: _278  and  _280
REMARK  114  A    between atoms: _280  and  _281
REMARK  115  A    between atoms: _280  and  _283
REMARK  116  A    between atoms: _283  and  _284
REMARK  117  A    between atoms: _287  and  _289
REMARK  118  A    between atoms: _289  and  _290
REMARK  119  A    between atoms: _289  and  _292
REMARK  120  A    between atoms: _292  and  _293
REMARK  121  A    between atoms: _296  and  _298
REMARK  122  A    between atoms: _298  and  _299
REMARK  123  A    between atoms: _298  and  _301
REMARK  124  A    between atoms: _301  and  _302
REMARK  125  A    between atoms: _305  and  _307
REMARK  126  A    between atoms: _307  and  _308
REMARK  127  A    between atoms: _310  and  _312
REMARK  128  A    between atoms: _312  and  _313
REMARK  129  A    between atoms: _316  and  _318
REMARK  130  A    between atoms: _318  and  _319
REMARK  131  A    between atoms: _318  and  _321
REMARK  132  A    between atoms: _321  and  _322
REMARK  133  A    between atoms: _325  and  _327
REMARK  134  A    between atoms: _327  and  _328
REMARK  135  A    between atoms: _327  and  _330
REMARK  136  A    between atoms: _330  and  _331
REMARK  137  A    between atoms: _334  and  _336
REMARK  138  A    between atoms: _336  and  _337
REMARK  139  A    between atoms: _336  and  _339
REMARK  140  A    between atoms: _339  and  _340
REMARK  141  A    between atoms: _343  and  _345
REMARK  142  A    between atoms: _345  and  _346
REMARK  143  A    between atoms: _345  and  _348
REMARK  144  A    between atoms: _351  and  _353
REMARK  145  A    between atoms: _353  and  _354
REMARK  146  A    between atoms: _353  and  _356
REMARK  147  A    between atoms: _356  and  _357
REMARK  148  A    between atoms: _357  and  _358
REMARK  149  A    between atoms: _358  and  _359
REMARK  150  A    between atoms: _359  and  _360
REMARK  151  A    between atoms: _364  and  _366
REMARK  152  A    between atoms: _366  and  _367
REMARK  153  A    between atoms: _366  and  _369
REMARK  154  A    between atoms: _369  and  _370
REMARK  155  A    between atoms: _370  and  _371
REMARK  156  A    between atoms: _373  and  _375
REMARK  157  A    between atoms: _375  and  _376
REMARK  158  A    between atoms: _375  and  _378
REMARK  159  A    between atoms: _378  and  _379
REMARK  160  A    between atoms: _382  and  _384
REMARK  161  A    between atoms: _384  and  _385
REMARK  162  A    between atoms: _387  and  _389
REMARK  163  A    between atoms: _389  and  _390
REMARK  164  A    between atoms: _392  and  _394
REMARK  165  A    between atoms: _394  and  _395
REMARK  166  A    between atoms: _394  and  _397
REMARK  167  A    between atoms: _397  and  _398
REMARK  168  A    between atoms: _401  and  _403
REMARK  169  A    between atoms: _403  and  _404
REMARK  170  A    between atoms: _406  and  _408
REMARK  171  A    between atoms: _408  and  _409
REMARK  172  A    between atoms: _411  and  _413
REMARK  173  A    between atoms: _413  and  _414
REMARK  174  A    between atoms: _413  and  _416
REMARK  175  A    between atoms: _416  and  _417
REMARK  176  A    between atoms: _423  and  _425
REMARK  177  A    between atoms: _425  and  _426
REMARK  178  A    between atoms: _425  and  _428
REMARK  179  A    between atoms: _428  and  _429
REMARK  180  A    between atoms: _432  and  _434
REMARK  181  A    between atoms: _434  and  _435
REMARK  182  A    between atoms: _434  and  _437
REMARK  183  A    between atoms: _440  and  _442
REMARK  184  A    between atoms: _442  and  _443
REMARK  185  A    between atoms: _442  and  _445
REMARK  186  A    between atoms: _445  and  _446
REMARK  187  A    between atoms: _450  and  _451
REMARK  188  A    between atoms: _456  and  _458
REMARK  189  A    between atoms: _458  and  _459
REMARK  190  A    between atoms: _458  and  _461
REMARK  191  A    between atoms: _461  and  _462
REMARK  192  A    between atoms: _466  and  _467
REMARK  193  A    between atoms: _472  and  _474
REMARK  194  A    between atoms: _474  and  _475
REMARK  195  A    between atoms: _474  and  _477
REMARK  196  A    between atoms: _480  and  _482
REMARK  197  A    between atoms: _482  and  _483
REMARK  198  A    between atoms: _482  and  _485
REMARK  199  A    between atoms: _485  and  _486
REMARK  200  A    between atoms: _491  and  _493
REMARK  201  A    between atoms: _493  and  _494
REMARK  202  A    between atoms: _493  and  _496
REMARK  203  A    between atoms: _496  and  _497
REMARK  204  A    between atoms: _500  and  _502
REMARK  205  A    between atoms: _502  and  _503
REMARK  206  A    between atoms: _502  and  _505
REMARK  207  A    between atoms: _505  and  _506
REMARK  208  A    between atoms: _509  and  _511
REMARK  209  A    between atoms: _511  and  _512
REMARK  210  A    between atoms: _514  and  _516
REMARK  211  A    between atoms: _516  and  _517
REMARK  212  A    between atoms: _516  and  _519
REMARK  213  A    between atoms: _519  and  _520
REMARK  214  A    between atoms: _520  and  _521
REMARK  215  A    between atoms: _521  and  _522
REMARK  216  A    between atoms: _531  and  _533
REMARK  217  A    between atoms: _533  and  _534
REMARK  218  A    between atoms: _533  and  _536
REMARK  219  A    between atoms: _536  and  _537
REMARK                            x       y       z     vdW  Elec       q    Type
REMARK                         _______ _______ _______ _____ _____    ______ ____
ROOT
ATOM      1  O   HOH     1      23.168  26.070   4.912  0.00  0.00    +0.000 OA
ENDROOT
TORSDOF 0
REMARK  Name = ../refined-set-2016/2qi3/2qi3_pocket.pdb
REMARK  219 active torsions:
REMARK  status: ('A' for Active; 'I' for Inactive)
REMARK    1  A    between atoms: _1  and  _3
REMARK    2  A    between atoms: _3  and  _4
REMARK    3  A    between atoms: _3  and  _6
REMARK    4  A    between atoms: _6  and  _7
REMARK    5  A    between atoms: _7  and  _8
REMARK    6  A    between atoms: _8  and  _9
REMARK    7  A    between atoms: _18  and  _20
REMARK    8  A    between atoms: _20  and  _21
REMARK    9  A    between atoms: _20  and  _23
REMARK   10  A    between atoms: _23  and  _24
REMARK   11  A    between atoms: _27  and  _29
REMARK   12  A    between atoms: _29  and  _30
REMARK   13  A    between atoms: _29  and  _32
REMARK   14  A    between atoms: _32  and  _33
REMARK   15  A    between atoms: _36  and  _38
REMARK   16  A    between atoms: _38  and  _39
REMARK   17  A    between atoms: _38  and  _41
REMARK   18  A    between atoms: _41  and  _42
REMARK   19  A    between atoms: _45  and  _47
REMARK   20  A    between atoms: _47  and  _48
REMARK   21  A    between atoms: _47  and  _50
REMARK   22  A    between atoms: _50  and  _51
REMARK   23  A    between atoms: _54  and  _56
REMARK   24  A    between atoms: _56  and  _57
REMARK   25  A    between atoms: _59  and  _61
REMARK   26  A    between atoms: _61  and  _62
REMARK   27  A    between atoms: _65  and  _67
REMARK   28  A    between atoms: _67  and  _68
REMARK   29  A    between atoms: _67  and  _70
REMARK   30  A    between atoms: _70  and  _71
REMARK   31  A    between atoms: _74  and  _76
REMARK   32  A    between atoms: _76  and  _77
REMARK   33  A    between atoms: _76  and  _79
REMARK   34  A    between atoms: _79  and  _80
REMARK   35  A    between atoms: _83  and  _85
REMARK   36  A    between atoms: _85  and  _86
REMARK   37  A    between atoms: _85  and  _88
REMARK   38  A    between atoms: _88  and  _89
REMARK   39  A    between atoms: _92  and  _94
REMARK   40  A    between atoms: _94  and  _95
REMARK   41  A    between atoms: _94  and  _97
REMARK   42  A    between atoms: _100  and  _102
REMARK   43  A    between atoms: _102  and  _103
REMARK   44  A    between atoms: _102  and  _105
REMARK   45  A    between atoms: _105  and  _106
REMARK   46  A    between atoms: _106  and  _107
REMARK   47  A    between atoms: _109  and  _111
REMARK   48  A    between atoms: _111  and  _112
REMARK   49  A    between atoms: _111  and  _114
REMARK   50  A    between atoms: _114  and  _115
REMARK   51  A    between atoms: _118  and  _120
REMARK   52  A    between atoms: _120  and  _121
REMARK   53  A    between atoms: _123  and  _125
REMARK   54  A    between atoms: _125  and  _126
REMARK   55  A    between atoms: _128  and  _130
REMARK   56  A    between atoms: _130  and  _131
REMARK   57  A    between atoms: _130  and  _133
REMARK   58  A    between atoms: _133  and  _134
REMARK   59  A    between atoms: _137  and  _139
REMARK   60  A    between atoms: _139  and  _140
REMARK   61  A    between atoms: _142  and  _144
REMARK   62  A    between atoms: _144  and  _145
REMARK   63  A    between atoms: _147  and  _149
REMARK   64  A    between atoms: _149  and  _150
REMARK   65  A    between atoms: _149  and  _152
REMARK   66  A    between atoms: _152  and  _153
REMARK   67  A    between atoms: _159  and  _161
REMARK   68  A    between atoms: _161  and  _162
REMARK   69  A    between atoms: _161  and  _164
REMARK   70  A    between atoms: _164  and  _165
REMARK   71  A    between atoms: _168  and  _170
REMARK   72  A    between atoms: _170  and  _171
REMARK   73  A    between atoms: _170  and  _173
REMARK   74  A    between atoms: _173  and  _174
REMARK   75  A    between atoms: _177  and  _179
REMARK   76  A    between atoms: _179  and  _180
REMARK   77  A    between atoms: _179  and  _182
REMARK   78  A    between atoms: _182  and  _183
REMARK   79  A    between atoms: _187  and  _188
REMARK   80  A    between atoms: _193  and  _195
REMARK   81  A    between atoms: _195  and  _196
REMARK   82  A    between atoms: _195  and  _198
REMARK   83  A    between atoms: _201  and  _203
REMARK   84  A    between atoms: _203  and  _204
REMARK   85  A    between atoms: _203  and  _206
REMARK   86  A    between atoms: _206  and  _207
REMARK   87  A    between atoms: _212  and  _214
REMARK   88  A    between atoms: _214  and  _215
REMARK   89  A    between atoms: _214  and  _217
REMARK   90  A    between atoms: _217  and  _218
REMARK   91  A    between atoms: _221  and  _223
REMARK   92  A    between atoms: _223  and  _224
REMARK   93  A    between atoms: _223  and  _226
REMARK   94  A    between atoms: _226  and  _227
REMARK   95  A    between atoms: _230  and  _232
REMARK   96  A    between atoms: _232  and  _233
REMARK   97  A    between atoms: _235  and  _237
REMARK   98  A    between atoms: _237  and  _238
REMARK   99  A    between atoms: _237  and  _240
REMARK  100  A    between atoms: _240  and  _241
REMARK  101  A    between atoms: _241  and  _242
REMARK  102  A    between atoms: _242  and  _243
REMARK  103  A    between atoms: _252  and  _254
REMARK  104  A    between atoms: _254  and  _255
REMARK  105  A    between atoms: _254  and  _257
REMARK  106  A    between atoms: _257  and  _258
REMARK  107  A    between atoms: _258  and  _259
REMARK  108  A    between atoms: _259  and  _260
REMARK  109  A    between atoms: _269  and  _271
REMARK  110  A    between atoms: _271  and  _272
REMARK  111  A    between atoms: _271  and  _274
REMARK  112  A    between atoms: _274  and  _275
REMARK  113  A    between atoms: _278  and  _280
REMARK  114  A    between atoms: _280  and  _281
REMARK  115  A    between atoms: _280  and  _283
REMARK  116  A    between atoms: _283  and  _284
REMARK  117  A    between atoms: _287  and  _289
REMARK  118  A    between atoms: _289  and  _290
REMARK  119  A    between atoms: _289  and  _292
REMARK  120  A    between atoms: _292  and  _293
REMARK  121  A    between atoms: _296  and  _298
REMARK  122  A    between atoms: _298  and  _299
REMARK  123  A    between atoms: _298  and  _301
REMARK  124  A    between atoms: _301  and  _302
REMARK  125  A    between atoms: _305  and  _307
REMARK  126  A    between atoms: _307  and  _308
REMARK  127  A    between atoms: _310  and  _312
REMARK  128  A    between atoms: _312  and  _313
REMARK  129  A    between atoms: _316  and  _318
REMARK  130  A    between atoms: _318  and  _319
REMARK  131  A    between atoms: _318  and  _321
REMARK  132  A    between atoms: _321  and  _322
REMARK  133  A    between atoms: _325  and  _327
REMARK  134  A    between atoms: _327  and  _328
REMARK  135  A    between atoms: _327  and  _330
REMARK  136  A    between atoms: _330  and  _331
REMARK  137  A    between atoms: _334  and  _336
REMARK  138  A    between atoms: _336  and  _337
REMARK  139  A    between atoms: _336  and  _339
REMARK  140  A    between atoms: _339  and  _340
REMARK  141  A    between atoms: _343  and  _345
REMARK  142  A    between atoms: _345  and  _346
REMARK  143  A    between atoms: _345  and  _348
REMARK  144  A    between atoms: _351  and  _353
REMARK  145  A    between atoms: _353  and  _354
REMARK  146  A    between atoms: _353  and  _356
REMARK  147  A    between atoms: _356  and  _357
REMARK  148  A    between atoms: _357  and  _358
REMARK  149  A    between atoms: _358  and  _359
REMARK  150  A    between atoms: _359  and  _360
REMARK  151  A    between atoms: _364  and  _366
REMARK  152  A    between atoms: _366  and  _367
REMARK  153  A    between atoms: _366  and  _369
REMARK  154  A    between atoms: _369  and  _370
REMARK  155  A    between atoms: _370  and  _371
REMARK  156  A    between atoms: _373  and  _375
REMARK  157  A    between atoms: _375  and  _376
REMARK  158  A    between atoms: _375  and  _378
REMARK  159  A    between atoms: _378  and  _379
REMARK  160  A    between atoms: _382  and  _384
REMARK  161  A    between atoms: _384  and  _385
REMARK  162  A    between atoms: _387  and  _389
REMARK  163  A    between atoms: _389  and  _390
REMARK  164  A    between atoms: _392  and  _394
REMARK  165  A    between atoms: _394  and  _395
REMARK  166  A    between atoms: _394  and  _397
REMARK  167  A    between atoms: _397  and  _398
REMARK  168  A    between atoms: _401  and  _403
REMARK  169  A    between atoms: _403  and  _404
REMARK  170  A    between atoms: _406  and  _408
REMARK  171  A    between atoms: _408  and  _409
REMARK  172  A    between atoms: _411  and  _413
REMARK  173  A    between atoms: _413  and  _414
REMARK  174  A    between atoms: _413  and  _416
REMARK  175  A    between atoms: _416  and  _417
REMARK  176  A    between atoms: _423  and  _425
REMARK  177  A    between atoms: _425  and  _426
REMARK  178  A    between atoms: _425  and  _428
REMARK  179  A    between atoms: _428  and  _429
REMARK  180  A    between atoms: _432  and  _434
REMARK  181  A    between atoms: _434  and  _435
REMARK  182  A    between atoms: _434  and  _437
REMARK  183  A    between atoms: _440  and  _442
REMARK  184  A    between atoms: _442  and  _443
REMARK  185  A    between atoms: _442  and  _445
REMARK  186  A    between atoms: _445  and  _446
REMARK  187  A    between atoms: _450  and  _451
REMARK  188  A    between atoms: _456  and  _458
REMARK  189  A    between atoms: _458  and  _459
REMARK  190  A    between atoms: _458  and  _461
REMARK  191  A    between atoms: _461  and  _462
REMARK  192  A    between atoms: _466  and  _467
REMARK  193  A    between atoms: _472  and  _474
REMARK  194  A    between atoms: _474  and  _475
REMARK  195  A    between atoms: _474  and  _477
REMARK  196  A    between atoms: _480  and  _482
REMARK  197  A    between atoms: _482  and  _483
REMARK  198  A    between atoms: _482  and  _485
REMARK  199  A    between atoms: _485  and  _486
REMARK  200  A    between atoms: _491  and  _493
REMARK  201  A    between atoms: _493  and  _494
REMARK  202  A    between atoms: _493  and  _496
REMARK  203  A    between atoms: _496  and  _497
REMARK  204  A    between atoms: _500  and  _502
REMARK  205  A    between atoms: _502  and  _503
REMARK  206  A    between atoms: _502  and  _505
REMARK  207  A    between atoms: _505  and  _506
REMARK  208  A    between atoms: _509  and  _511
REMARK  209  A    between atoms: _511  and  _512
REMARK  210  A    between atoms: _514  and  _516
REMARK  211  A    between atoms: _516  and  _517
REMARK  212  A    between atoms: _516  and  _519
REMARK  213  A    between atoms: _519  and  _520
REMARK  214  A    between atoms: _520  and  _521
REMARK  215  A    between atoms: _521  and  _522
REMARK  216  A    between atoms: _531  and  _533
REMARK  217  A    between atoms: _533  and  _534
REMARK  218  A    between atoms: _533  and  _536
REMARK  219  A    between atoms: _536  and  _537
REMARK                            x       y       z     vdW  Elec       q    Type
REMARK                         _______ _______ _______ _____ _____    ______ ____
ROOT
ATOM      1  O   HOH     1      18.496  30.906   3.891  0.00  0.00    +0.000 OA
ENDROOT
TORSDOF 0
REMARK  Name = ../refined-set-2016/2qi3/2qi3_pocket.pdb
REMARK  219 active torsions:
REMARK  status: ('A' for Active; 'I' for Inactive)
REMARK    1  A    between atoms: _1  and  _3
REMARK    2  A    between atoms: _3  and  _4
REMARK    3  A    between atoms: _3  and  _6
REMARK    4  A    between atoms: _6  and  _7
REMARK    5  A    between atoms: _7  and  _8
REMARK    6  A    between atoms: _8  and  _9
REMARK    7  A    between atoms: _18  and  _20
REMARK    8  A    between atoms: _20  and  _21
REMARK    9  A    between atoms: _20  and  _23
REMARK   10  A    between atoms: _23  and  _24
REMARK   11  A    between atoms: _27  and  _29
REMARK   12  A    between atoms: _29  and  _30
REMARK   13  A    between atoms: _29  and  _32
REMARK   14  A    between atoms: _32  and  _33
REMARK   15  A    between atoms: _36  and  _38
REMARK   16  A    between atoms: _38  and  _39
REMARK   17  A    between atoms: _38  and  _41
REMARK   18  A    between atoms: _41  and  _42
REMARK   19  A    between atoms: _45  and  _47
REMARK   20  A    between atoms: _47  and  _48
REMARK   21  A    between atoms: _47  and  _50
REMARK   22  A    between atoms: _50  and  _51
REMARK   23  A    between atoms: _54  and  _56
REMARK   24  A    between atoms: _56  and  _57
REMARK   25  A    between atoms: _59  and  _61
REMARK   26  A    between atoms: _61  and  _62
REMARK   27  A    between atoms: _65  and  _67
REMARK   28  A    between atoms: _67  and  _68
REMARK   29  A    between atoms: _67  and  _70
REMARK   30  A    between atoms: _70  and  _71
REMARK   31  A    between atoms: _74  and  _76
REMARK   32  A    between atoms: _76  and  _77
REMARK   33  A    between atoms: _76  and  _79
REMARK   34  A    between atoms: _79  and  _80
REMARK   35  A    between atoms: _83  and  _85
REMARK   36  A    between atoms: _85  and  _86
REMARK   37  A    between atoms: _85  and  _88
REMARK   38  A    between atoms: _88  and  _89
REMARK   39  A    between atoms: _92  and  _94
REMARK   40  A    between atoms: _94  and  _95
REMARK   41  A    between atoms: _94  and  _97
REMARK   42  A    between atoms: _100  and  _102
REMARK   43  A    between atoms: _102  and  _103
REMARK   44  A    between atoms: _102  and  _105
REMARK   45  A    between atoms: _105  and  _106
REMARK   46  A    between atoms: _106  and  _107
REMARK   47  A    between atoms: _109  and  _111
REMARK   48  A    between atoms: _111  and  _112
REMARK   49  A    between atoms: _111  and  _114
REMARK   50  A    between atoms: _114  and  _115
REMARK   51  A    between atoms: _118  and  _120
REMARK   52  A    between atoms: _120  and  _121
REMARK   53  A    between atoms: _123  and  _125
REMARK   54  A    between atoms: _125  and  _126
REMARK   55  A    between atoms: _128  and  _130
REMARK   56  A    between atoms: _130  and  _131
REMARK   57  A    between atoms: _130  and  _133
REMARK   58  A    between atoms: _133  and  _134
REMARK   59  A    between atoms: _137  and  _139
REMARK   60  A    between atoms: _139  and  _140
REMARK   61  A    between atoms: _142  and  _144
REMARK   62  A    between atoms: _144  and  _145
REMARK   63  A    between atoms: _147  and  _149
REMARK   64  A    between atoms: _149  and  _150
REMARK   65  A    between atoms: _149  and  _152
REMARK   66  A    between atoms: _152  and  _153
REMARK   67  A    between atoms: _159  and  _161
REMARK   68  A    between atoms: _161  and  _162
REMARK   69  A    between atoms: _161  and  _164
REMARK   70  A    between atoms: _164  and  _165
REMARK   71  A    between atoms: _168  and  _170
REMARK   72  A    between atoms: _170  and  _171
REMARK   73  A    between atoms: _170  and  _173
REMARK   74  A    between atoms: _173  and  _174
REMARK   75  A    between atoms: _177  and  _179
REMARK   76  A    between atoms: _179  and  _180
REMARK   77  A    between atoms: _179  and  _182
REMARK   78  A    between atoms: _182  and  _183
REMARK   79  A    between atoms: _187  and  _188
REMARK   80  A    between atoms: _193  and  _195
REMARK   81  A    between atoms: _195  and  _196
REMARK   82  A    between atoms: _195  and  _198
REMARK   83  A    between atoms: _201  and  _203
REMARK   84  A    between atoms: _203  and  _204
REMARK   85  A    between atoms: _203  and  _206
REMARK   86  A    between atoms: _206  and  _207
REMARK   87  A    between atoms: _212  and  _214
REMARK   88  A    between atoms: _214  and  _215
REMARK   89  A    between atoms: _214  and  _217
REMARK   90  A    between atoms: _217  and  _218
REMARK   91  A    between atoms: _221  and  _223
REMARK   92  A    between atoms: _223  and  _224
REMARK   93  A    between atoms: _223  and  _226
REMARK   94  A    between atoms: _226  and  _227
REMARK   95  A    between atoms: _230  and  _232
REMARK   96  A    between atoms: _232  and  _233
REMARK   97  A    between atoms: _235  and  _237
REMARK   98  A    between atoms: _237  and  _238
REMARK   99  A    between atoms: _237  and  _240
REMARK  100  A    between atoms: _240  and  _241
REMARK  101  A    between atoms: _241  and  _242
REMARK  102  A    between atoms: _242  and  _243
REMARK  103  A    between atoms: _252  and  _254
REMARK  104  A    between atoms: _254  and  _255
REMARK  105  A    between atoms: _254  and  _257
REMARK  106  A    between atoms: _257  and  _258
REMARK  107  A    between atoms: _258  and  _259
REMARK  108  A    between atoms: _259  and  _260
REMARK  109  A    between atoms: _269  and  _271
REMARK  110  A    between atoms: _271  and  _272
REMARK  111  A    between atoms: _271  and  _274
REMARK  112  A    between atoms: _274  and  _275
REMARK  113  A    between atoms: _278  and  _280
REMARK  114  A    between atoms: _280  and  _281
REMARK  115  A    between atoms: _280  and  _283
REMARK  116  A    between atoms: _283  and  _284
REMARK  117  A    between atoms: _287  and  _289
REMARK  118  A    between atoms: _289  and  _290
REMARK  119  A    between atoms: _289  and  _292
REMARK  120  A    between atoms: _292  and  _293
REMARK  121  A    between atoms: _296  and  _298
REMARK  122  A    between atoms: _298  and  _299
REMARK  123  A    between atoms: _298  and  _301
REMARK  124  A    between atoms: _301  and  _302
REMARK  125  A    between atoms: _305  and  _307
REMARK  126  A    between atoms: _307  and  _308
REMARK  127  A    between atoms: _310  and  _312
REMARK  128  A    between atoms: _312  and  _313
REMARK  129  A    between atoms: _316  and  _318
REMARK  130  A    between atoms: _318  and  _319
REMARK  131  A    between atoms: _318  and  _321
REMARK  132  A    between atoms: _321  and  _322
REMARK  133  A    between atoms: _325  and  _327
REMARK  134  A    between atoms: _327  and  _328
REMARK  135  A    between atoms: _327  and  _330
REMARK  136  A    between atoms: _330  and  _331
REMARK  137  A    between atoms: _334  and  _336
REMARK  138  A    between atoms: _336  and  _337
REMARK  139  A    between atoms: _336  and  _339
REMARK  140  A    between atoms: _339  and  _340
REMARK  141  A    between atoms: _343  and  _345
REMARK  142  A    between atoms: _345  and  _346
REMARK  143  A    between atoms: _345  and  _348
REMARK  144  A    between atoms: _351  and  _353
REMARK  145  A    between atoms: _353  and  _354
REMARK  146  A    between atoms: _353  and  _356
REMARK  147  A    between atoms: _356  and  _357
REMARK  148  A    between atoms: _357  and  _358
REMARK  149  A    between atoms: _358  and  _359
REMARK  150  A    between atoms: _359  and  _360
REMARK  151  A    between atoms: _364  and  _366
REMARK  152  A    between atoms: _366  and  _367
REMARK  153  A    between atoms: _366  and  _369
REMARK  154  A    between atoms: _369  and  _370
REMARK  155  A    between atoms: _370  and  _371
REMARK  156  A    between atoms: _373  and  _375
REMARK  157  A    between atoms: _375  and  _376
REMARK  158  A    between atoms: _375  and  _378
REMARK  159  A    between atoms: _378  and  _379
REMARK  160  A    between atoms: _382  and  _384
REMARK  161  A    between atoms: _384  and  _385
REMARK  162  A    between atoms: _387  and  _389
REMARK  163  A    between atoms: _389  and  _390
REMARK  164  A    between atoms: _392  and  _394
REMARK  165  A    between atoms: _394  and  _395
REMARK  166  A    between atoms: _394  and  _397
REMARK  167  A    between atoms: _397  and  _398
REMARK  168  A    between atoms: _401  and  _403
REMARK  169  A    between atoms: _403  and  _404
REMARK  170  A    between atoms: _406  and  _408
REMARK  171  A    between atoms: _408  and  _409
REMARK  172  A    between atoms: _411  and  _413
REMARK  173  A    between atoms: _413  and  _414
REMARK  174  A    between atoms: _413  and  _416
REMARK  175  A    between atoms: _416  and  _417
REMARK  176  A    between atoms: _423  and  _425
REMARK  177  A    between atoms: _425  and  _426
REMARK  178  A    between atoms: _425  and  _428
REMARK  179  A    between atoms: _428  and  _429
REMARK  180  A    between atoms: _432  and  _434
REMARK  181  A    between atoms: _434  and  _435
REMARK  182  A    between atoms: _434  and  _437
REMARK  183  A    between atoms: _440  and  _442
REMARK  184  A    between atoms: _442  and  _443
REMARK  185  A    between atoms: _442  and  _445
REMARK  186  A    between atoms: _445  and  _446
REMARK  187  A    between atoms: _450  and  _451
REMARK  188  A    between atoms: _456  and  _458
REMARK  189  A    between atoms: _458  and  _459
REMARK  190  A    between atoms: _458  and  _461
REMARK  191  A    between atoms: _461  and  _462
REMARK  192  A    between atoms: _466  and  _467
REMARK  193  A    between atoms: _472  and  _474
REMARK  194  A    between atoms: _474  and  _475
REMARK  195  A    between atoms: _474  and  _477
REMARK  196  A    between atoms: _480  and  _482
REMARK  197  A    between atoms: _482  and  _483
REMARK  198  A    between atoms: _482  and  _485
REMARK  199  A    between atoms: _485  and  _486
REMARK  200  A    between atoms: _491  and  _493
REMARK  201  A    between atoms: _493  and  _494
REMARK  202  A    between atoms: _493  and  _496
REMARK  203  A    between atoms: _496  and  _497
REMARK  204  A    between atoms: _500  and  _502
REMARK  205  A    between atoms: _502  and  _503
REMARK  206  A    between atoms: _502  and  _505
REMARK  207  A    between atoms: _505  and  _506
REMARK  208  A    between atoms: _509  and  _511
REMARK  209  A    between atoms: _511  and  _512
REMARK  210  A    between atoms: _514  and  _516
REMARK  211  A    between atoms: _516  and  _517
REMARK  212  A    between atoms: _516  and  _519
REMARK  213  A    between atoms: _519  and  _520
REMARK  214  A    between atoms: _520  and  _521
REMARK  215  A    between atoms: _521  and  _522
REMARK  216  A    between atoms: _531  and  _533
REMARK  217  A    between atoms: _533  and  _534
REMARK  218  A    between atoms: _533  and  _536
REMARK  219  A    between atoms: _536  and  _537
REMARK                            x       y       z     vdW  Elec       q    Type
REMARK                         _______ _______ _______ _____ _____    ______ ____
ROOT
ATOM      1  O   HOH     1      24.673  40.402  16.978  0.00  0.00    +0.000 OA
ENDROOT
TORSDOF 0
REMARK  Name = ../refined-set-2016/2qi3/2qi3_pocket.pdb
REMARK  219 active torsions:
REMARK  status: ('A' for Active; 'I' for Inactive)
REMARK    1  A    between atoms: _1  and  _3
REMARK    2  A    between atoms: _3  and  _4
REMARK    3  A    between atoms: _3  and  _6
REMARK    4  A    between atoms: _6  and  _7
REMARK    5  A    between atoms: _7  and  _8
REMARK    6  A    between atoms: _8  and  _9
REMARK    7  A    between atoms: _18  and  _20
REMARK    8  A    between atoms: _20  and  _21
REMARK    9  A    between atoms: _20  and  _23
REMARK   10  A    between atoms: _23  and  _24
REMARK   11  A    between atoms: _27  and  _29
REMARK   12  A    between atoms: _29  and  _30
REMARK   13  A    between atoms: _29  and  _32
REMARK   14  A    between atoms: _32  and  _33
REMARK   15  A    between atoms: _36  and  _38
REMARK   16  A    between atoms: _38  and  _39
REMARK   17  A    between atoms: _38  and  _41
REMARK   18  A    between atoms: _41  and  _42
REMARK   19  A    between atoms: _45  and  _47
REMARK   20  A    between atoms: _47  and  _48
REMARK   21  A    between atoms: _47  and  _50
REMARK   22  A    between atoms: _50  and  _51
REMARK   23  A    between atoms: _54  and  _56
REMARK   24  A    between atoms: _56  and  _57
REMARK   25  A    between atoms: _59  and  _61
REMARK   26  A    between atoms: _61  and  _62
REMARK   27  A    between atoms: _65  and  _67
REMARK   28  A    between atoms: _67  and  _68
REMARK   29  A    between atoms: _67  and  _70
REMARK   30  A    between atoms: _70  and  _71
REMARK   31  A    between atoms: _74  and  _76
REMARK   32  A    between atoms: _76  and  _77
REMARK   33  A    between atoms: _76  and  _79
REMARK   34  A    between atoms: _79  and  _80
REMARK   35  A    between atoms: _83  and  _85
REMARK   36  A    between atoms: _85  and  _86
REMARK   37  A    between atoms: _85  and  _88
REMARK   38  A    between atoms: _88  and  _89
REMARK   39  A    between atoms: _92  and  _94
REMARK   40  A    between atoms: _94  and  _95
REMARK   41  A    between atoms: _94  and  _97
REMARK   42  A    between atoms: _100  and  _102
REMARK   43  A    between atoms: _102  and  _103
REMARK   44  A    between atoms: _102  and  _105
REMARK   45  A    between atoms: _105  and  _106
REMARK   46  A    between atoms: _106  and  _107
REMARK   47  A    between atoms: _109  and  _111
REMARK   48  A    between atoms: _111  and  _112
REMARK   49  A    between atoms: _111  and  _114
REMARK   50  A    between atoms: _114  and  _115
REMARK   51  A    between atoms: _118  and  _120
REMARK   52  A    between atoms: _120  and  _121
REMARK   53  A    between atoms: _123  and  _125
REMARK   54  A    between atoms: _125  and  _126
REMARK   55  A    between atoms: _128  and  _130
REMARK   56  A    between atoms: _130  and  _131
REMARK   57  A    between atoms: _130  and  _133
REMARK   58  A    between atoms: _133  and  _134
REMARK   59  A    between atoms: _137  and  _139
REMARK   60  A    between atoms: _139  and  _140
REMARK   61  A    between atoms: _142  and  _144
REMARK   62  A    between atoms: _144  and  _145
REMARK   63  A    between atoms: _147  and  _149
REMARK   64  A    between atoms: _149  and  _150
REMARK   65  A    between atoms: _149  and  _152
REMARK   66  A    between atoms: _152  and  _153
REMARK   67  A    between atoms: _159  and  _161
REMARK   68  A    between atoms: _161  and  _162
REMARK   69  A    between atoms: _161  and  _164
REMARK   70  A    between atoms: _164  and  _165
REMARK   71  A    between atoms: _168  and  _170
REMARK   72  A    between atoms: _170  and  _171
REMARK   73  A    between atoms: _170  and  _173
REMARK   74  A    between atoms: _173  and  _174
REMARK   75  A    between atoms: _177  and  _179
REMARK   76  A    between atoms: _179  and  _180
REMARK   77  A    between atoms: _179  and  _182
REMARK   78  A    between atoms: _182  and  _183
REMARK   79  A    between atoms: _187  and  _188
REMARK   80  A    between atoms: _193  and  _195
REMARK   81  A    between atoms: _195  and  _196
REMARK   82  A    between atoms: _195  and  _198
REMARK   83  A    between atoms: _201  and  _203
REMARK   84  A    between atoms: _203  and  _204
REMARK   85  A    between atoms: _203  and  _206
REMARK   86  A    between atoms: _206  and  _207
REMARK   87  A    between atoms: _212  and  _214
REMARK   88  A    between atoms: _214  and  _215
REMARK   89  A    between atoms: _214  and  _217
REMARK   90  A    between atoms: _217  and  _218
REMARK   91  A    between atoms: _221  and  _223
REMARK   92  A    between atoms: _223  and  _224
REMARK   93  A    between atoms: _223  and  _226
REMARK   94  A    between atoms: _226  and  _227
REMARK   95  A    between atoms: _230  and  _232
REMARK   96  A    between atoms: _232  and  _233
REMARK   97  A    between atoms: _235  and  _237
REMARK   98  A    between atoms: _237  and  _238
REMARK   99  A    between atoms: _237  and  _240
REMARK  100  A    between atoms: _240  and  _241
REMARK  101  A    between atoms: _241  and  _242
REMARK  102  A    between atoms: _242  and  _243
REMARK  103  A    between atoms: _252  and  _254
REMARK  104  A    between atoms: _254  and  _255
REMARK  105  A    between atoms: _254  and  _257
REMARK  106  A    between atoms: _257  and  _258
REMARK  107  A    between atoms: _258  and  _259
REMARK  108  A    between atoms: _259  and  _260
REMARK  109  A    between atoms: _269  and  _271
REMARK  110  A    between atoms: _271  and  _272
REMARK  111  A    between atoms: _271  and  _274
REMARK  112  A    between atoms: _274  and  _275
REMARK  113  A    between atoms: _278  and  _280
REMARK  114  A    between atoms: _280  and  _281
REMARK  115  A    between atoms: _280  and  _283
REMARK  116  A    between atoms: _283  and  _284
REMARK  117  A    between atoms: _287  and  _289
REMARK  118  A    between atoms: _289  and  _290
REMARK  119  A    between atoms: _289  and  _292
REMARK  120  A    between atoms: _292  and  _293
REMARK  121  A    between atoms: _296  and  _298
REMARK  122  A    between atoms: _298  and  _299
REMARK  123  A    between atoms: _298  and  _301
REMARK  124  A    between atoms: _301  and  _302
REMARK  125  A    between atoms: _305  and  _307
REMARK  126  A    between atoms: _307  and  _308
REMARK  127  A    between atoms: _310  and  _312
REMARK  128  A    between atoms: _312  and  _313
REMARK  129  A    between atoms: _316  and  _318
REMARK  130  A    between atoms: _318  and  _319
REMARK  131  A    between atoms: _318  and  _321
REMARK  132  A    between atoms: _321  and  _322
REMARK  133  A    between atoms: _325  and  _327
REMARK  134  A    between atoms: _327  and  _328
REMARK  135  A    between atoms: _327  and  _330
REMARK  136  A    between atoms: _330  and  _331
REMARK  137  A    between atoms: _334  and  _336
REMARK  138  A    between atoms: _336  and  _337
REMARK  139  A    between atoms: _336  and  _339
REMARK  140  A    between atoms: _339  and  _340
REMARK  141  A    between atoms: _343  and  _345
REMARK  142  A    between atoms: _345  and  _346
REMARK  143  A    between atoms: _345  and  _348
REMARK  144  A    between atoms: _351  and  _353
REMARK  145  A    between atoms: _353  and  _354
REMARK  146  A    between atoms: _353  and  _356
REMARK  147  A    between atoms: _356  and  _357
REMARK  148  A    between atoms: _357  and  _358
REMARK  149  A    between atoms: _358  and  _359
REMARK  150  A    between atoms: _359  and  _360
REMARK  151  A    between atoms: _364  and  _366
REMARK  152  A    between atoms: _366  and  _367
REMARK  153  A    between atoms: _366  and  _369
REMARK  154  A    between atoms: _369  and  _370
REMARK  155  A    between atoms: _370  and  _371
REMARK  156  A    between atoms: _373  and  _375
REMARK  157  A    between atoms: _375  and  _376
REMARK  158  A    between atoms: _375  and  _378
REMARK  159  A    between atoms: _378  and  _379
REMARK  160  A    between atoms: _382  and  _384
REMARK  161  A    between atoms: _384  and  _385
REMARK  162  A    between atoms: _387  and  _389
REMARK  163  A    between atoms: _389  and  _390
REMARK  164  A    between atoms: _392  and  _394
REMARK  165  A    between atoms: _394  and  _395
REMARK  166  A    between atoms: _394  and  _397
REMARK  167  A    between atoms: _397  and  _398
REMARK  168  A    between atoms: _401  and  _403
REMARK  169  A    between atoms: _403  and  _404
REMARK  170  A    between atoms: _406  and  _408
REMARK  171  A    between atoms: _408  and  _409
REMARK  172  A    between atoms: _411  and  _413
REMARK  173  A    between atoms: _413  and  _414
REMARK  174  A    between atoms: _413  and  _416
REMARK  175  A    between atoms: _416  and  _417
REMARK  176  A    between atoms: _423  and  _425
REMARK  177  A    between atoms: _425  and  _426
REMARK  178  A    between atoms: _425  and  _428
REMARK  179  A    between atoms: _428  and  _429
REMARK  180  A    between atoms: _432  and  _434
REMARK  181  A    between atoms: _434  and  _435
REMARK  182  A    between atoms: _434  and  _437
REMARK  183  A    between atoms: _440  and  _442
REMARK  184  A    between atoms: _442  and  _443
REMARK  185  A    between atoms: _442  and  _445
REMARK  186  A    between atoms: _445  and  _446
REMARK  187  A    between atoms: _450  and  _451
REMARK  188  A    between atoms: _456  and  _458
REMARK  189  A    between atoms: _458  and  _459
REMARK  190  A    between atoms: _458  and  _461
REMARK  191  A    between atoms: _461  and  _462
REMARK  192  A    between atoms: _466  and  _467
REMARK  193  A    between atoms: _472  and  _474
REMARK  194  A    between atoms: _474  and  _475
REMARK  195  A    between atoms: _474  and  _477
REMARK  196  A    between atoms: _480  and  _482
REMARK  197  A    between atoms: _482  and  _483
REMARK  198  A    between atoms: _482  and  _485
REMARK  199  A    between atoms: _485  and  _486
REMARK  200  A    between atoms: _491  and  _493
REMARK  201  A    between atoms: _493  and  _494
REMARK  202  A    between atoms: _493  and  _496
REMARK  203  A    between atoms: _496  and  _497
REMARK  204  A    between atoms: _500  and  _502
REMARK  205  A    between atoms: _502  and  _503
REMARK  206  A    between atoms: _502  and  _505
REMARK  207  A    between atoms: _505  and  _506
REMARK  208  A    between atoms: _509  and  _511
REMARK  209  A    between atoms: _511  and  _512
REMARK  210  A    between atoms: _514  and  _516
REMARK  211  A    between atoms: _516  and  _517
REMARK  212  A    between atoms: _516  and  _519
REMARK  213  A    between atoms: _519  and  _520
REMARK  214  A    between atoms: _520  and  _521
REMARK  215  A    between atoms: _521  and  _522
REMARK  216  A    between atoms: _531  and  _533
REMARK  217  A    between atoms: _533  and  _534
REMARK  218  A    between atoms: _533  and  _536
REMARK  219  A    between atoms: _536  and  _537
REMARK                            x       y       z     vdW  Elec       q    Type
REMARK                         _______ _______ _______ _____ _____    ______ ____
ROOT
ATOM      1  O   HOH     1      22.451  23.540   8.763  0.00  0.00    +0.000 OA
ENDROOT
TORSDOF 0
REMARK  Name = ../refined-set-2016/2qi3/2qi3_pocket.pdb
REMARK  219 active torsions:
REMARK  status: ('A' for Active; 'I' for Inactive)
REMARK    1  A    between atoms: _1  and  _3
REMARK    2  A    between atoms: _3  and  _4
REMARK    3  A    between atoms: _3  and  _6
REMARK    4  A    between atoms: _6  and  _7
REMARK    5  A    between atoms: _7  and  _8
REMARK    6  A    between atoms: _8  and  _9
REMARK    7  A    between atoms: _18  and  _20
REMARK    8  A    between atoms: _20  and  _21
REMARK    9  A    between atoms: _20  and  _23
REMARK   10  A    between atoms: _23  and  _24
REMARK   11  A    between atoms: _27  and  _29
REMARK   12  A    between atoms: _29  and  _30
REMARK   13  A    between atoms: _29  and  _32
REMARK   14  A    between atoms: _32  and  _33
REMARK   15  A    between atoms: _36  and  _38
REMARK   16  A    between atoms: _38  and  _39
REMARK   17  A    between atoms: _38  and  _41
REMARK   18  A    between atoms: _41  and  _42
REMARK   19  A    between atoms: _45  and  _47
REMARK   20  A    between atoms: _47  and  _48
REMARK   21  A    between atoms: _47  and  _50
REMARK   22  A    between atoms: _50  and  _51
REMARK   23  A    between atoms: _54  and  _56
REMARK   24  A    between atoms: _56  and  _57
REMARK   25  A    between atoms: _59  and  _61
REMARK   26  A    between atoms: _61  and  _62
REMARK   27  A    between atoms: _65  and  _67
REMARK   28  A    between atoms: _67  and  _68
REMARK   29  A    between atoms: _67  and  _70
REMARK   30  A    between atoms: _70  and  _71
REMARK   31  A    between atoms: _74  and  _76
REMARK   32  A    between atoms: _76  and  _77
REMARK   33  A    between atoms: _76  and  _79
REMARK   34  A    between atoms: _79  and  _80
REMARK   35  A    between atoms: _83  and  _85
REMARK   36  A    between atoms: _85  and  _86
REMARK   37  A    between atoms: _85  and  _88
REMARK   38  A    between atoms: _88  and  _89
REMARK   39  A    between atoms: _92  and  _94
REMARK   40  A    between atoms: _94  and  _95
REMARK   41  A    between atoms: _94  and  _97
REMARK   42  A    between atoms: _100  and  _102
REMARK   43  A    between atoms: _102  and  _103
REMARK   44  A    between atoms: _102  and  _105
REMARK   45  A    between atoms: _105  and  _106
REMARK   46  A    between atoms: _106  and  _107
REMARK   47  A    between atoms: _109  and  _111
REMARK   48  A    between atoms: _111  and  _112
REMARK   49  A    between atoms: _111  and  _114
REMARK   50  A    between atoms: _114  and  _115
REMARK   51  A    between atoms: _118  and  _120
REMARK   52  A    between atoms: _120  and  _121
REMARK   53  A    between atoms: _123  and  _125
REMARK   54  A    between atoms: _125  and  _126
REMARK   55  A    between atoms: _128  and  _130
REMARK   56  A    between atoms: _130  and  _131
REMARK   57  A    between atoms: _130  and  _133
REMARK   58  A    between atoms: _133  and  _134
REMARK   59  A    between atoms: _137  and  _139
REMARK   60  A    between atoms: _139  and  _140
REMARK   61  A    between atoms: _142  and  _144
REMARK   62  A    between atoms: _144  and  _145
REMARK   63  A    between atoms: _147  and  _149
REMARK   64  A    between atoms: _149  and  _150
REMARK   65  A    between atoms: _149  and  _152
REMARK   66  A    between atoms: _152  and  _153
REMARK   67  A    between atoms: _159  and  _161
REMARK   68  A    between atoms: _161  and  _162
REMARK   69  A    between atoms: _161  and  _164
REMARK   70  A    between atoms: _164  and  _165
REMARK   71  A    between atoms: _168  and  _170
REMARK   72  A    between atoms: _170  and  _171
REMARK   73  A    between atoms: _170  and  _173
REMARK   74  A    between atoms: _173  and  _174
REMARK   75  A    between atoms: _177  and  _179
REMARK   76  A    between atoms: _179  and  _180
REMARK   77  A    between atoms: _179  and  _182
REMARK   78  A    between atoms: _182  and  _183
REMARK   79  A    between atoms: _187  and  _188
REMARK   80  A    between atoms: _193  and  _195
REMARK   81  A    between atoms: _195  and  _196
REMARK   82  A    between atoms: _195  and  _198
REMARK   83  A    between atoms: _201  and  _203
REMARK   84  A    between atoms: _203  and  _204
REMARK   85  A    between atoms: _203  and  _206
REMARK   86  A    between atoms: _206  and  _207
REMARK   87  A    between atoms: _212  and  _214
REMARK   88  A    between atoms: _214  and  _215
REMARK   89  A    between atoms: _214  and  _217
REMARK   90  A    between atoms: _217  and  _218
REMARK   91  A    between atoms: _221  and  _223
REMARK   92  A    between atoms: _223  and  _224
REMARK   93  A    between atoms: _223  and  _226
REMARK   94  A    between atoms: _226  and  _227
REMARK   95  A    between atoms: _230  and  _232
REMARK   96  A    between atoms: _232  and  _233
REMARK   97  A    between atoms: _235  and  _237
REMARK   98  A    between atoms: _237  and  _238
REMARK   99  A    between atoms: _237  and  _240
REMARK  100  A    between atoms: _240  and  _241
REMARK  101  A    between atoms: _241  and  _242
REMARK  102  A    between atoms: _242  and  _243
REMARK  103  A    between atoms: _252  and  _254
REMARK  104  A    between atoms: _254  and  _255
REMARK  105  A    between atoms: _254  and  _257
REMARK  106  A    between atoms: _257  and  _258
REMARK  107  A    between atoms: _258  and  _259
REMARK  108  A    between atoms: _259  and  _260
REMARK  109  A    between atoms: _269  and  _271
REMARK  110  A    between atoms: _271  and  _272
REMARK  111  A    between atoms: _271  and  _274
REMARK  112  A    between atoms: _274  and  _275
REMARK  113  A    between atoms: _278  and  _280
REMARK  114  A    between atoms: _280  and  _281
REMARK  115  A    between atoms: _280  and  _283
REMARK  116  A    between atoms: _283  and  _284
REMARK  117  A    between atoms: _287  and  _289
REMARK  118  A    between atoms: _289  and  _290
REMARK  119  A    between atoms: _289  and  _292
REMARK  120  A    between atoms: _292  and  _293
REMARK  121  A    between atoms: _296  and  _298
REMARK  122  A    between atoms: _298  and  _299
REMARK  123  A    between atoms: _298  and  _301
REMARK  124  A    between atoms: _301  and  _302
REMARK  125  A    between atoms: _305  and  _307
REMARK  126  A    between atoms: _307  and  _308
REMARK  127  A    between atoms: _310  and  _312
REMARK  128  A    between atoms: _312  and  _313
REMARK  129  A    between atoms: _316  and  _318
REMARK  130  A    between atoms: _318  and  _319
REMARK  131  A    between atoms: _318  and  _321
REMARK  132  A    between atoms: _321  and  _322
REMARK  133  A    between atoms: _325  and  _327
REMARK  134  A    between atoms: _327  and  _328
REMARK  135  A    between atoms: _327  and  _330
REMARK  136  A    between atoms: _330  and  _331
REMARK  137  A    between atoms: _334  and  _336
REMARK  138  A    between atoms: _336  and  _337
REMARK  139  A    between atoms: _336  and  _339
REMARK  140  A    between atoms: _339  and  _340
REMARK  141  A    between atoms: _343  and  _345
REMARK  142  A    between atoms: _345  and  _346
REMARK  143  A    between atoms: _345  and  _348
REMARK  144  A    between atoms: _351  and  _353
REMARK  145  A    between atoms: _353  and  _354
REMARK  146  A    between atoms: _353  and  _356
REMARK  147  A    between atoms: _356  and  _357
REMARK  148  A    between atoms: _357  and  _358
REMARK  149  A    between atoms: _358  and  _359
REMARK  150  A    between atoms: _359  and  _360
REMARK  151  A    between atoms: _364  and  _366
REMARK  152  A    between atoms: _366  and  _367
REMARK  153  A    between atoms: _366  and  _369
REMARK  154  A    between atoms: _369  and  _370
REMARK  155  A    between atoms: _370  and  _371
REMARK  156  A    between atoms: _373  and  _375
REMARK  157  A    between atoms: _375  and  _376
REMARK  158  A    between atoms: _375  and  _378
REMARK  159  A    between atoms: _378  and  _379
REMARK  160  A    between atoms: _382  and  _384
REMARK  161  A    between atoms: _384  and  _385
REMARK  162  A    between atoms: _387  and  _389
REMARK  163  A    between atoms: _389  and  _390
REMARK  164  A    between atoms: _392  and  _394
REMARK  165  A    between atoms: _394  and  _395
REMARK  166  A    between atoms: _394  and  _397
REMARK  167  A    between atoms: _397  and  _398
REMARK  168  A    between atoms: _401  and  _403
REMARK  169  A    between atoms: _403  and  _404
REMARK  170  A    between atoms: _406  and  _408
REMARK  171  A    between atoms: _408  and  _409
REMARK  172  A    between atoms: _411  and  _413
REMARK  173  A    between atoms: _413  and  _414
REMARK  174  A    between atoms: _413  and  _416
REMARK  175  A    between atoms: _416  and  _417
REMARK  176  A    between atoms: _423  and  _425
REMARK  177  A    between atoms: _425  and  _426
REMARK  178  A    between atoms: _425  and  _428
REMARK  179  A    between atoms: _428  and  _429
REMARK  180  A    between atoms: _432  and  _434
REMARK  181  A    between atoms: _434  and  _435
REMARK  182  A    between atoms: _434  and  _437
REMARK  183  A    between atoms: _440  and  _442
REMARK  184  A    between atoms: _442  and  _443
REMARK  185  A    between atoms: _442  and  _445
REMARK  186  A    between atoms: _445  and  _446
REMARK  187  A    between atoms: _450  and  _451
REMARK  188  A    between atoms: _456  and  _458
REMARK  189  A    between atoms: _458  and  _459
REMARK  190  A    between atoms: _458  and  _461
REMARK  191  A    between atoms: _461  and  _462
REMARK  192  A    between atoms: _466  and  _467
REMARK  193  A    between atoms: _472  and  _474
REMARK  194  A    between atoms: _474  and  _475
REMARK  195  A    between atoms: _474  and  _477
REMARK  196  A    between atoms: _480  and  _482
REMARK  197  A    between atoms: _482  and  _483
REMARK  198  A    between atoms: _482  and  _485
REMARK  199  A    between atoms: _485  and  _486
REMARK  200  A    between atoms: _491  and  _493
REMARK  201  A    between atoms: _493  and  _494
REMARK  202  A    between atoms: _493  and  _496
REMARK  203  A    between atoms: _496  and  _497
REMARK  204  A    between atoms: _500  and  _502
REMARK  205  A    between atoms: _502  and  _503
REMARK  206  A    between atoms: _502  and  _505
REMARK  207  A    between atoms: _505  and  _506
REMARK  208  A    between atoms: _509  and  _511
REMARK  209  A    between atoms: _511  and  _512
REMARK  210  A    between atoms: _514  and  _516
REMARK  211  A    between atoms: _516  and  _517
REMARK  212  A    between atoms: _516  and  _519
REMARK  213  A    between atoms: _519  and  _520
REMARK  214  A    between atoms: _520  and  _521
REMARK  215  A    between atoms: _521  and  _522
REMARK  216  A    between atoms: _531  and  _533
REMARK  217  A    between atoms: _533  and  _534
REMARK  218  A    between atoms: _533  and  _536
REMARK  219  A    between atoms: _536  and  _537
REMARK                            x       y       z     vdW  Elec       q    Type
REMARK                         _______ _______ _______ _____ _____    ______ ____
ROOT
ATOM      1  O   HOH     1      19.630  36.897  18.813  0.00  0.00    +0.000 OA
ENDROOT
TORSDOF 0
REMARK  Name = ../refined-set-2016/2qi3/2qi3_pocket.pdb
REMARK  219 active torsions:
REMARK  status: ('A' for Active; 'I' for Inactive)
REMARK    1  A    between atoms: _1  and  _3
REMARK    2  A    between atoms: _3  and  _4
REMARK    3  A    between atoms: _3  and  _6
REMARK    4  A    between atoms: _6  and  _7
REMARK    5  A    between atoms: _7  and  _8
REMARK    6  A    between atoms: _8  and  _9
REMARK    7  A    between atoms: _18  and  _20
REMARK    8  A    between atoms: _20  and  _21
REMARK    9  A    between atoms: _20  and  _23
REMARK   10  A    between atoms: _23  and  _24
REMARK   11  A    between atoms: _27  and  _29
REMARK   12  A    between atoms: _29  and  _30
REMARK   13  A    between atoms: _29  and  _32
REMARK   14  A    between atoms: _32  and  _33
REMARK   15  A    between atoms: _36  and  _38
REMARK   16  A    between atoms: _38  and  _39
REMARK   17  A    between atoms: _38  and  _41
REMARK   18  A    between atoms: _41  and  _42
REMARK   19  A    between atoms: _45  and  _47
REMARK   20  A    between atoms: _47  and  _48
REMARK   21  A    between atoms: _47  and  _50
REMARK   22  A    between atoms: _50  and  _51
REMARK   23  A    between atoms: _54  and  _56
REMARK   24  A    between atoms: _56  and  _57
REMARK   25  A    between atoms: _59  and  _61
REMARK   26  A    between atoms: _61  and  _62
REMARK   27  A    between atoms: _65  and  _67
REMARK   28  A    between atoms: _67  and  _68
REMARK   29  A    between atoms: _67  and  _70
REMARK   30  A    between atoms: _70  and  _71
REMARK   31  A    between atoms: _74  and  _76
REMARK   32  A    between atoms: _76  and  _77
REMARK   33  A    between atoms: _76  and  _79
REMARK   34  A    between atoms: _79  and  _80
REMARK   35  A    between atoms: _83  and  _85
REMARK   36  A    between atoms: _85  and  _86
REMARK   37  A    between atoms: _85  and  _88
REMARK   38  A    between atoms: _88  and  _89
REMARK   39  A    between atoms: _92  and  _94
REMARK   40  A    between atoms: _94  and  _95
REMARK   41  A    between atoms: _94  and  _97
REMARK   42  A    between atoms: _100  and  _102
REMARK   43  A    between atoms: _102  and  _103
REMARK   44  A    between atoms: _102  and  _105
REMARK   45  A    between atoms: _105  and  _106
REMARK   46  A    between atoms: _106  and  _107
REMARK   47  A    between atoms: _109  and  _111
REMARK   48  A    between atoms: _111  and  _112
REMARK   49  A    between atoms: _111  and  _114
REMARK   50  A    between atoms: _114  and  _115
REMARK   51  A    between atoms: _118  and  _120
REMARK   52  A    between atoms: _120  and  _121
REMARK   53  A    between atoms: _123  and  _125
REMARK   54  A    between atoms: _125  and  _126
REMARK   55  A    between atoms: _128  and  _130
REMARK   56  A    between atoms: _130  and  _131
REMARK   57  A    between atoms: _130  and  _133
REMARK   58  A    between atoms: _133  and  _134
REMARK   59  A    between atoms: _137  and  _139
REMARK   60  A    between atoms: _139  and  _140
REMARK   61  A    between atoms: _142  and  _144
REMARK   62  A    between atoms: _144  and  _145
REMARK   63  A    between atoms: _147  and  _149
REMARK   64  A    between atoms: _149  and  _150
REMARK   65  A    between atoms: _149  and  _152
REMARK   66  A    between atoms: _152  and  _153
REMARK   67  A    between atoms: _159  and  _161
REMARK   68  A    between atoms: _161  and  _162
REMARK   69  A    between atoms: _161  and  _164
REMARK   70  A    between atoms: _164  and  _165
REMARK   71  A    between atoms: _168  and  _170
REMARK   72  A    between atoms: _170  and  _171
REMARK   73  A    between atoms: _170  and  _173
REMARK   74  A    between atoms: _173  and  _174
REMARK   75  A    between atoms: _177  and  _179
REMARK   76  A    between atoms: _179  and  _180
REMARK   77  A    between atoms: _179  and  _182
REMARK   78  A    between atoms: _182  and  _183
REMARK   79  A    between atoms: _187  and  _188
REMARK   80  A    between atoms: _193  and  _195
REMARK   81  A    between atoms: _195  and  _196
REMARK   82  A    between atoms: _195  and  _198
REMARK   83  A    between atoms: _201  and  _203
REMARK   84  A    between atoms: _203  and  _204
REMARK   85  A    between atoms: _203  and  _206
REMARK   86  A    between atoms: _206  and  _207
REMARK   87  A    between atoms: _212  and  _214
REMARK   88  A    between atoms: _214  and  _215
REMARK   89  A    between atoms: _214  and  _217
REMARK   90  A    between atoms: _217  and  _218
REMARK   91  A    between atoms: _221  and  _223
REMARK   92  A    between atoms: _223  and  _224
REMARK   93  A    between atoms: _223  and  _226
REMARK   94  A    between atoms: _226  and  _227
REMARK   95  A    between atoms: _230  and  _232
REMARK   96  A    between atoms: _232  and  _233
REMARK   97  A    between atoms: _235  and  _237
REMARK   98  A    between atoms: _237  and  _238
REMARK   99  A    between atoms: _237  and  _240
REMARK  100  A    between atoms: _240  and  _241
REMARK  101  A    between atoms: _241  and  _242
REMARK  102  A    between atoms: _242  and  _243
REMARK  103  A    between atoms: _252  and  _254
REMARK  104  A    between atoms: _254  and  _255
REMARK  105  A    between atoms: _254  and  _257
REMARK  106  A    between atoms: _257  and  _258
REMARK  107  A    between atoms: _258  and  _259
REMARK  108  A    between atoms: _259  and  _260
REMARK  109  A    between atoms: _269  and  _271
REMARK  110  A    between atoms: _271  and  _272
REMARK  111  A    between atoms: _271  and  _274
REMARK  112  A    between atoms: _274  and  _275
REMARK  113  A    between atoms: _278  and  _280
REMARK  114  A    between atoms: _280  and  _281
REMARK  115  A    between atoms: _280  and  _283
REMARK  116  A    between atoms: _283  and  _284
REMARK  117  A    between atoms: _287  and  _289
REMARK  118  A    between atoms: _289  and  _290
REMARK  119  A    between atoms: _289  and  _292
REMARK  120  A    between atoms: _292  and  _293
REMARK  121  A    between atoms: _296  and  _298
REMARK  122  A    between atoms: _298  and  _299
REMARK  123  A    between atoms: _298  and  _301
REMARK  124  A    between atoms: _301  and  _302
REMARK  125  A    between atoms: _305  and  _307
REMARK  126  A    between atoms: _307  and  _308
REMARK  127  A    between atoms: _310  and  _312
REMARK  128  A    between atoms: _312  and  _313
REMARK  129  A    between atoms: _316  and  _318
REMARK  130  A    between atoms: _318  and  _319
REMARK  131  A    between atoms: _318  and  _321
REMARK  132  A    between atoms: _321  and  _322
REMARK  133  A    between atoms: _325  and  _327
REMARK  134  A    between atoms: _327  and  _328
REMARK  135  A    between atoms: _327  and  _330
REMARK  136  A    between atoms: _330  and  _331
REMARK  137  A    between atoms: _334  and  _336
REMARK  138  A    between atoms: _336  and  _337
REMARK  139  A    between atoms: _336  and  _339
REMARK  140  A    between atoms: _339  and  _340
REMARK  141  A    between atoms: _343  and  _345
REMARK  142  A    between atoms: _345  and  _346
REMARK  143  A    between atoms: _345  and  _348
REMARK  144  A    between atoms: _351  and  _353
REMARK  145  A    between atoms: _353  and  _354
REMARK  146  A    between atoms: _353  and  _356
REMARK  147  A    between atoms: _356  and  _357
REMARK  148  A    between atoms: _357  and  _358
REMARK  149  A    between atoms: _358  and  _359
REMARK  150  A    between atoms: _359  and  _360
REMARK  151  A    between atoms: _364  and  _366
REMARK  152  A    between atoms: _366  and  _367
REMARK  153  A    between atoms: _366  and  _369
REMARK  154  A    between atoms: _369  and  _370
REMARK  155  A    between atoms: _370  and  _371
REMARK  156  A    between atoms: _373  and  _375
REMARK  157  A    between atoms: _375  and  _376
REMARK  158  A    between atoms: _375  and  _378
REMARK  159  A    between atoms: _378  and  _379
REMARK  160  A    between atoms: _382  and  _384
REMARK  161  A    between atoms: _384  and  _385
REMARK  162  A    between atoms: _387  and  _389
REMARK  163  A    between atoms: _389  and  _390
REMARK  164  A    between atoms: _392  and  _394
REMARK  165  A    between atoms: _394  and  _395
REMARK  166  A    between atoms: _394  and  _397
REMARK  167  A    between atoms: _397  and  _398
REMARK  168  A    between atoms: _401  and  _403
REMARK  169  A    between atoms: _403  and  _404
REMARK  170  A    between atoms: _406  and  _408
REMARK  171  A    between atoms: _408  and  _409
REMARK  172  A    between atoms: _411  and  _413
REMARK  173  A    between atoms: _413  and  _414
REMARK  174  A    between atoms: _413  and  _416
REMARK  175  A    between atoms: _416  and  _417
REMARK  176  A    between atoms: _423  and  _425
REMARK  177  A    between atoms: _425  and  _426
REMARK  178  A    between atoms: _425  and  _428
REMARK  179  A    between atoms: _428  and  _429
REMARK  180  A    between atoms: _432  and  _434
REMARK  181  A    between atoms: _434  and  _435
REMARK  182  A    between atoms: _434  and  _437
REMARK  183  A    between atoms: _440  and  _442
REMARK  184  A    between atoms: _442  and  _443
REMARK  185  A    between atoms: _442  and  _445
REMARK  186  A    between atoms: _445  and  _446
REMARK  187  A    between atoms: _450  and  _451
REMARK  188  A    between atoms: _456  and  _458
REMARK  189  A    between atoms: _458  and  _459
REMARK  190  A    between atoms: _458  and  _461
REMARK  191  A    between atoms: _461  and  _462
REMARK  192  A    between atoms: _466  and  _467
REMARK  193  A    between atoms: _472  and  _474
REMARK  194  A    between atoms: _474  and  _475
REMARK  195  A    between atoms: _474  and  _477
REMARK  196  A    between atoms: _480  and  _482
REMARK  197  A    between atoms: _482  and  _483
REMARK  198  A    between atoms: _482  and  _485
REMARK  199  A    between atoms: _485  and  _486
REMARK  200  A    between atoms: _491  and  _493
REMARK  201  A    between atoms: _493  and  _494
REMARK  202  A    between atoms: _493  and  _496
REMARK  203  A    between atoms: _496  and  _497
REMARK  204  A    between atoms: _500  and  _502
REMARK  205  A    between atoms: _502  and  _503
REMARK  206  A    between atoms: _502  and  _505
REMARK  207  A    between atoms: _505  and  _506
REMARK  208  A    between atoms: _509  and  _511
REMARK  209  A    between atoms: _511  and  _512
REMARK  210  A    between atoms: _514  and  _516
REMARK  211  A    between atoms: _516  and  _517
REMARK  212  A    between atoms: _516  and  _519
REMARK  213  A    between atoms: _519  and  _520
REMARK  214  A    between atoms: _520  and  _521
REMARK  215  A    between atoms: _521  and  _522
REMARK  216  A    between atoms: _531  and  _533
REMARK  217  A    between atoms: _533  and  _534
REMARK  218  A    between atoms: _533  and  _536
REMARK  219  A    between atoms: _536  and  _537
REMARK                            x       y       z     vdW  Elec       q    Type
REMARK                         _______ _______ _______ _____ _____    ______ ____
ROOT
ATOM      1  O   HOH     1      20.454  21.611  15.175  0.00  0.00    +0.000 OA
ENDROOT
TORSDOF 0
REMARK  Name = ../refined-set-2016/2qi3/2qi3_pocket.pdb
REMARK  219 active torsions:
REMARK  status: ('A' for Active; 'I' for Inactive)
REMARK    1  A    between atoms: _1  and  _3
REMARK    2  A    between atoms: _3  and  _4
REMARK    3  A    between atoms: _3  and  _6
REMARK    4  A    between atoms: _6  and  _7
REMARK    5  A    between atoms: _7  and  _8
REMARK    6  A    between atoms: _8  and  _9
REMARK    7  A    between atoms: _18  and  _20
REMARK    8  A    between atoms: _20  and  _21
REMARK    9  A    between atoms: _20  and  _23
REMARK   10  A    between atoms: _23  and  _24
REMARK   11  A    between atoms: _27  and  _29
REMARK   12  A    between atoms: _29  and  _30
REMARK   13  A    between atoms: _29  and  _32
REMARK   14  A    between atoms: _32  and  _33
REMARK   15  A    between atoms: _36  and  _38
REMARK   16  A    between atoms: _38  and  _39
REMARK   17  A    between atoms: _38  and  _41
REMARK   18  A    between atoms: _41  and  _42
REMARK   19  A    between atoms: _45  and  _47
REMARK   20  A    between atoms: _47  and  _48
REMARK   21  A    between atoms: _47  and  _50
REMARK   22  A    between atoms: _50  and  _51
REMARK   23  A    between atoms: _54  and  _56
REMARK   24  A    between atoms: _56  and  _57
REMARK   25  A    between atoms: _59  and  _61
REMARK   26  A    between atoms: _61  and  _62
REMARK   27  A    between atoms: _65  and  _67
REMARK   28  A    between atoms: _67  and  _68
REMARK   29  A    between atoms: _67  and  _70
REMARK   30  A    between atoms: _70  and  _71
REMARK   31  A    between atoms: _74  and  _76
REMARK   32  A    between atoms: _76  and  _77
REMARK   33  A    between atoms: _76  and  _79
REMARK   34  A    between atoms: _79  and  _80
REMARK   35  A    between atoms: _83  and  _85
REMARK   36  A    between atoms: _85  and  _86
REMARK   37  A    between atoms: _85  and  _88
REMARK   38  A    between atoms: _88  and  _89
REMARK   39  A    between atoms: _92  and  _94
REMARK   40  A    between atoms: _94  and  _95
REMARK   41  A    between atoms: _94  and  _97
REMARK   42  A    between atoms: _100  and  _102
REMARK   43  A    between atoms: _102  and  _103
REMARK   44  A    between atoms: _102  and  _105
REMARK   45  A    between atoms: _105  and  _106
REMARK   46  A    between atoms: _106  and  _107
REMARK   47  A    between atoms: _109  and  _111
REMARK   48  A    between atoms: _111  and  _112
REMARK   49  A    between atoms: _111  and  _114
REMARK   50  A    between atoms: _114  and  _115
REMARK   51  A    between atoms: _118  and  _120
REMARK   52  A    between atoms: _120  and  _121
REMARK   53  A    between atoms: _123  and  _125
REMARK   54  A    between atoms: _125  and  _126
REMARK   55  A    between atoms: _128  and  _130
REMARK   56  A    between atoms: _130  and  _131
REMARK   57  A    between atoms: _130  and  _133
REMARK   58  A    between atoms: _133  and  _134
REMARK   59  A    between atoms: _137  and  _139
REMARK   60  A    between atoms: _139  and  _140
REMARK   61  A    between atoms: _142  and  _144
REMARK   62  A    between atoms: _144  and  _145
REMARK   63  A    between atoms: _147  and  _149
REMARK   64  A    between atoms: _149  and  _150
REMARK   65  A    between atoms: _149  and  _152
REMARK   66  A    between atoms: _152  and  _153
REMARK   67  A    between atoms: _159  and  _161
REMARK   68  A    between atoms: _161  and  _162
REMARK   69  A    between atoms: _161  and  _164
REMARK   70  A    between atoms: _164  and  _165
REMARK   71  A    between atoms: _168  and  _170
REMARK   72  A    between atoms: _170  and  _171
REMARK   73  A    between atoms: _170  and  _173
REMARK   74  A    between atoms: _173  and  _174
REMARK   75  A    between atoms: _177  and  _179
REMARK   76  A    between atoms: _179  and  _180
REMARK   77  A    between atoms: _179  and  _182
REMARK   78  A    between atoms: _182  and  _183
REMARK   79  A    between atoms: _187  and  _188
REMARK   80  A    between atoms: _193  and  _195
REMARK   81  A    between atoms: _195  and  _196
REMARK   82  A    between atoms: _195  and  _198
REMARK   83  A    between atoms: _201  and  _203
REMARK   84  A    between atoms: _203  and  _204
REMARK   85  A    between atoms: _203  and  _206
REMARK   86  A    between atoms: _206  and  _207
REMARK   87  A    between atoms: _212  and  _214
REMARK   88  A    between atoms: _214  and  _215
REMARK   89  A    between atoms: _214  and  _217
REMARK   90  A    between atoms: _217  and  _218
REMARK   91  A    between atoms: _221  and  _223
REMARK   92  A    between atoms: _223  and  _224
REMARK   93  A    between atoms: _223  and  _226
REMARK   94  A    between atoms: _226  and  _227
REMARK   95  A    between atoms: _230  and  _232
REMARK   96  A    between atoms: _232  and  _233
REMARK   97  A    between atoms: _235  and  _237
REMARK   98  A    between atoms: _237  and  _238
REMARK   99  A    between atoms: _237  and  _240
REMARK  100  A    between atoms: _240  and  _241
REMARK  101  A    between atoms: _241  and  _242
REMARK  102  A    between atoms: _242  and  _243
REMARK  103  A    between atoms: _252  and  _254
REMARK  104  A    between atoms: _254  and  _255
REMARK  105  A    between atoms: _254  and  _257
REMARK  106  A    between atoms: _257  and  _258
REMARK  107  A    between atoms: _258  and  _259
REMARK  108  A    between atoms: _259  and  _260
REMARK  109  A    between atoms: _269  and  _271
REMARK  110  A    between atoms: _271  and  _272
REMARK  111  A    between atoms: _271  and  _274
REMARK  112  A    between atoms: _274  and  _275
REMARK  113  A    between atoms: _278  and  _280
REMARK  114  A    between atoms: _280  and  _281
REMARK  115  A    between atoms: _280  and  _283
REMARK  116  A    between atoms: _283  and  _284
REMARK  117  A    between atoms: _287  and  _289
REMARK  118  A    between atoms: _289  and  _290
REMARK  119  A    between atoms: _289  and  _292
REMARK  120  A    between atoms: _292  and  _293
REMARK  121  A    between atoms: _296  and  _298
REMARK  122  A    between atoms: _298  and  _299
REMARK  123  A    between atoms: _298  and  _301
REMARK  124  A    between atoms: _301  and  _302
REMARK  125  A    between atoms: _305  and  _307
REMARK  126  A    between atoms: _307  and  _308
REMARK  127  A    between atoms: _310  and  _312
REMARK  128  A    between atoms: _312  and  _313
REMARK  129  A    between atoms: _316  and  _318
REMARK  130  A    between atoms: _318  and  _319
REMARK  131  A    between atoms: _318  and  _321
REMARK  132  A    between atoms: _321  and  _322
REMARK  133  A    between atoms: _325  and  _327
REMARK  134  A    between atoms: _327  and  _328
REMARK  135  A    between atoms: _327  and  _330
REMARK  136  A    between atoms: _330  and  _331
REMARK  137  A    between atoms: _334  and  _336
REMARK  138  A    between atoms: _336  and  _337
REMARK  139  A    between atoms: _336  and  _339
REMARK  140  A    between atoms: _339  and  _340
REMARK  141  A    between atoms: _343  and  _345
REMARK  142  A    between atoms: _345  and  _346
REMARK  143  A    between atoms: _345  and  _348
REMARK  144  A    between atoms: _351  and  _353
REMARK  145  A    between atoms: _353  and  _354
REMARK  146  A    between atoms: _353  and  _356
REMARK  147  A    between atoms: _356  and  _357
REMARK  148  A    between atoms: _357  and  _358
REMARK  149  A    between atoms: _358  and  _359
REMARK  150  A    between atoms: _359  and  _360
REMARK  151  A    between atoms: _364  and  _366
REMARK  152  A    between atoms: _366  and  _367
REMARK  153  A    between atoms: _366  and  _369
REMARK  154  A    between atoms: _369  and  _370
REMARK  155  A    between atoms: _370  and  _371
REMARK  156  A    between atoms: _373  and  _375
REMARK  157  A    between atoms: _375  and  _376
REMARK  158  A    between atoms: _375  and  _378
REMARK  159  A    between atoms: _378  and  _379
REMARK  160  A    between atoms: _382  and  _384
REMARK  161  A    between atoms: _384  and  _385
REMARK  162  A    between atoms: _387  and  _389
REMARK  163  A    between atoms: _389  and  _390
REMARK  164  A    between atoms: _392  and  _394
REMARK  165  A    between atoms: _394  and  _395
REMARK  166  A    between atoms: _394  and  _397
REMARK  167  A    between atoms: _397  and  _398
REMARK  168  A    between atoms: _401  and  _403
REMARK  169  A    between atoms: _403  and  _404
REMARK  170  A    between atoms: _406  and  _408
REMARK  171  A    between atoms: _408  and  _409
REMARK  172  A    between atoms: _411  and  _413
REMARK  173  A    between atoms: _413  and  _414
REMARK  174  A    between atoms: _413  and  _416
REMARK  175  A    between atoms: _416  and  _417
REMARK  176  A    between atoms: _423  and  _425
REMARK  177  A    between atoms: _425  and  _426
REMARK  178  A    between atoms: _425  and  _428
REMARK  179  A    between atoms: _428  and  _429
REMARK  180  A    between atoms: _432  and  _434
REMARK  181  A    between atoms: _434  and  _435
REMARK  182  A    between atoms: _434  and  _437
REMARK  183  A    between atoms: _440  and  _442
REMARK  184  A    between atoms: _442  and  _443
REMARK  185  A    between atoms: _442  and  _445
REMARK  186  A    between atoms: _445  and  _446
REMARK  187  A    between atoms: _450  and  _451
REMARK  188  A    between atoms: _456  and  _458
REMARK  189  A    between atoms: _458  and  _459
REMARK  190  A    between atoms: _458  and  _461
REMARK  191  A    between atoms: _461  and  _462
REMARK  192  A    between atoms: _466  and  _467
REMARK  193  A    between atoms: _472  and  _474
REMARK  194  A    between atoms: _474  and  _475
REMARK  195  A    between atoms: _474  and  _477
REMARK  196  A    between atoms: _480  and  _482
REMARK  197  A    between atoms: _482  and  _483
REMARK  198  A    between atoms: _482  and  _485
REMARK  199  A    between atoms: _485  and  _486
REMARK  200  A    between atoms: _491  and  _493
REMARK  201  A    between atoms: _493  and  _494
REMARK  202  A    between atoms: _493  and  _496
REMARK  203  A    between atoms: _496  and  _497
REMARK  204  A    between atoms: _500  and  _502
REMARK  205  A    between atoms: _502  and  _503
REMARK  206  A    between atoms: _502  and  _505
REMARK  207  A    between atoms: _505  and  _506
REMARK  208  A    between atoms: _509  and  _511
REMARK  209  A    between atoms: _511  and  _512
REMARK  210  A    between atoms: _514  and  _516
REMARK  211  A    between atoms: _516  and  _517
REMARK  212  A    between atoms: _516  and  _519
REMARK  213  A    between atoms: _519  and  _520
REMARK  214  A    between atoms: _520  and  _521
REMARK  215  A    between atoms: _521  and  _522
REMARK  216  A    between atoms: _531  and  _533
REMARK  217  A    between atoms: _533  and  _534
REMARK  218  A    between atoms: _533  and  _536
REMARK  219  A    between atoms: _536  and  _537
REMARK                            x       y       z     vdW  Elec       q    Type
REMARK                         _______ _______ _______ _____ _____    ______ ____
ROOT
ATOM      1  O   HOH     1      25.304  26.002  11.786  0.00  0.00    +0.000 OA
ENDROOT
TORSDOF 0
REMARK  Name = ../refined-set-2016/2qi3/2qi3_pocket.pdb
REMARK  219 active torsions:
REMARK  status: ('A' for Active; 'I' for Inactive)
REMARK    1  A    between atoms: _1  and  _3
REMARK    2  A    between atoms: _3  and  _4
REMARK    3  A    between atoms: _3  and  _6
REMARK    4  A    between atoms: _6  and  _7
REMARK    5  A    between atoms: _7  and  _8
REMARK    6  A    between atoms: _8  and  _9
REMARK    7  A    between atoms: _18  and  _20
REMARK    8  A    between atoms: _20  and  _21
REMARK    9  A    between atoms: _20  and  _23
REMARK   10  A    between atoms: _23  and  _24
REMARK   11  A    between atoms: _27  and  _29
REMARK   12  A    between atoms: _29  and  _30
REMARK   13  A    between atoms: _29  and  _32
REMARK   14  A    between atoms: _32  and  _33
REMARK   15  A    between atoms: _36  and  _38
REMARK   16  A    between atoms: _38  and  _39
REMARK   17  A    between atoms: _38  and  _41
REMARK   18  A    between atoms: _41  and  _42
REMARK   19  A    between atoms: _45  and  _47
REMARK   20  A    between atoms: _47  and  _48
REMARK   21  A    between atoms: _47  and  _50
REMARK   22  A    between atoms: _50  and  _51
REMARK   23  A    between atoms: _54  and  _56
REMARK   24  A    between atoms: _56  and  _57
REMARK   25  A    between atoms: _59  and  _61
REMARK   26  A    between atoms: _61  and  _62
REMARK   27  A    between atoms: _65  and  _67
REMARK   28  A    between atoms: _67  and  _68
REMARK   29  A    between atoms: _67  and  _70
REMARK   30  A    between atoms: _70  and  _71
REMARK   31  A    between atoms: _74  and  _76
REMARK   32  A    between atoms: _76  and  _77
REMARK   33  A    between atoms: _76  and  _79
REMARK   34  A    between atoms: _79  and  _80
REMARK   35  A    between atoms: _83  and  _85
REMARK   36  A    between atoms: _85  and  _86
REMARK   37  A    between atoms: _85  and  _88
REMARK   38  A    between atoms: _88  and  _89
REMARK   39  A    between atoms: _92  and  _94
REMARK   40  A    between atoms: _94  and  _95
REMARK   41  A    between atoms: _94  and  _97
REMARK   42  A    between atoms: _100  and  _102
REMARK   43  A    between atoms: _102  and  _103
REMARK   44  A    between atoms: _102  and  _105
REMARK   45  A    between atoms: _105  and  _106
REMARK   46  A    between atoms: _106  and  _107
REMARK   47  A    between atoms: _109  and  _111
REMARK   48  A    between atoms: _111  and  _112
REMARK   49  A    between atoms: _111  and  _114
REMARK   50  A    between atoms: _114  and  _115
REMARK   51  A    between atoms: _118  and  _120
REMARK   52  A    between atoms: _120  and  _121
REMARK   53  A    between atoms: _123  and  _125
REMARK   54  A    between atoms: _125  and  _126
REMARK   55  A    between atoms: _128  and  _130
REMARK   56  A    between atoms: _130  and  _131
REMARK   57  A    between atoms: _130  and  _133
REMARK   58  A    between atoms: _133  and  _134
REMARK   59  A    between atoms: _137  and  _139
REMARK   60  A    between atoms: _139  and  _140
REMARK   61  A    between atoms: _142  and  _144
REMARK   62  A    between atoms: _144  and  _145
REMARK   63  A    between atoms: _147  and  _149
REMARK   64  A    between atoms: _149  and  _150
REMARK   65  A    between atoms: _149  and  _152
REMARK   66  A    between atoms: _152  and  _153
REMARK   67  A    between atoms: _159  and  _161
REMARK   68  A    between atoms: _161  and  _162
REMARK   69  A    between atoms: _161  and  _164
REMARK   70  A    between atoms: _164  and  _165
REMARK   71  A    between atoms: _168  and  _170
REMARK   72  A    between atoms: _170  and  _171
REMARK   73  A    between atoms: _170  and  _173
REMARK   74  A    between atoms: _173  and  _174
REMARK   75  A    between atoms: _177  and  _179
REMARK   76  A    between atoms: _179  and  _180
REMARK   77  A    between atoms: _179  and  _182
REMARK   78  A    between atoms: _182  and  _183
REMARK   79  A    between atoms: _187  and  _188
REMARK   80  A    between atoms: _193  and  _195
REMARK   81  A    between atoms: _195  and  _196
REMARK   82  A    between atoms: _195  and  _198
REMARK   83  A    between atoms: _201  and  _203
REMARK   84  A    between atoms: _203  and  _204
REMARK   85  A    between atoms: _203  and  _206
REMARK   86  A    between atoms: _206  and  _207
REMARK   87  A    between atoms: _212  and  _214
REMARK   88  A    between atoms: _214  and  _215
REMARK   89  A    between atoms: _214  and  _217
REMARK   90  A    between atoms: _217  and  _218
REMARK   91  A    between atoms: _221  and  _223
REMARK   92  A    between atoms: _223  and  _224
REMARK   93  A    between atoms: _223  and  _226
REMARK   94  A    between atoms: _226  and  _227
REMARK   95  A    between atoms: _230  and  _232
REMARK   96  A    between atoms: _232  and  _233
REMARK   97  A    between atoms: _235  and  _237
REMARK   98  A    between atoms: _237  and  _238
REMARK   99  A    between atoms: _237  and  _240
REMARK  100  A    between atoms: _240  and  _241
REMARK  101  A    between atoms: _241  and  _242
REMARK  102  A    between atoms: _242  and  _243
REMARK  103  A    between atoms: _252  and  _254
REMARK  104  A    between atoms: _254  and  _255
REMARK  105  A    between atoms: _254  and  _257
REMARK  106  A    between atoms: _257  and  _258
REMARK  107  A    between atoms: _258  and  _259
REMARK  108  A    between atoms: _259  and  _260
REMARK  109  A    between atoms: _269  and  _271
REMARK  110  A    between atoms: _271  and  _272
REMARK  111  A    between atoms: _271  and  _274
REMARK  112  A    between atoms: _274  and  _275
REMARK  113  A    between atoms: _278  and  _280
REMARK  114  A    between atoms: _280  and  _281
REMARK  115  A    between atoms: _280  and  _283
REMARK  116  A    between atoms: _283  and  _284
REMARK  117  A    between atoms: _287  and  _289
REMARK  118  A    between atoms: _289  and  _290
REMARK  119  A    between atoms: _289  and  _292
REMARK  120  A    between atoms: _292  and  _293
REMARK  121  A    between atoms: _296  and  _298
REMARK  122  A    between atoms: _298  and  _299
REMARK  123  A    between atoms: _298  and  _301
REMARK  124  A    between atoms: _301  and  _302
REMARK  125  A    between atoms: _305  and  _307
REMARK  126  A    between atoms: _307  and  _308
REMARK  127  A    between atoms: _310  and  _312
REMARK  128  A    between atoms: _312  and  _313
REMARK  129  A    between atoms: _316  and  _318
REMARK  130  A    between atoms: _318  and  _319
REMARK  131  A    between atoms: _318  and  _321
REMARK  132  A    between atoms: _321  and  _322
REMARK  133  A    between atoms: _325  and  _327
REMARK  134  A    between atoms: _327  and  _328
REMARK  135  A    between atoms: _327  and  _330
REMARK  136  A    between atoms: _330  and  _331
REMARK  137  A    between atoms: _334  and  _336
REMARK  138  A    between atoms: _336  and  _337
REMARK  139  A    between atoms: _336  and  _339
REMARK  140  A    between atoms: _339  and  _340
REMARK  141  A    between atoms: _343  and  _345
REMARK  142  A    between atoms: _345  and  _346
REMARK  143  A    between atoms: _345  and  _348
REMARK  144  A    between atoms: _351  and  _353
REMARK  145  A    between atoms: _353  and  _354
REMARK  146  A    between atoms: _353  and  _356
REMARK  147  A    between atoms: _356  and  _357
REMARK  148  A    between atoms: _357  and  _358
REMARK  149  A    between atoms: _358  and  _359
REMARK  150  A    between atoms: _359  and  _360
REMARK  151  A    between atoms: _364  and  _366
REMARK  152  A    between atoms: _366  and  _367
REMARK  153  A    between atoms: _366  and  _369
REMARK  154  A    between atoms: _369  and  _370
REMARK  155  A    between atoms: _370  and  _371
REMARK  156  A    between atoms: _373  and  _375
REMARK  157  A    between atoms: _375  and  _376
REMARK  158  A    between atoms: _375  and  _378
REMARK  159  A    between atoms: _378  and  _379
REMARK  160  A    between atoms: _382  and  _384
REMARK  161  A    between atoms: _384  and  _385
REMARK  162  A    between atoms: _387  and  _389
REMARK  163  A    between atoms: _389  and  _390
REMARK  164  A    between atoms: _392  and  _394
REMARK  165  A    between atoms: _394  and  _395
REMARK  166  A    between atoms: _394  and  _397
REMARK  167  A    between atoms: _397  and  _398
REMARK  168  A    between atoms: _401  and  _403
REMARK  169  A    between atoms: _403  and  _404
REMARK  170  A    between atoms: _406  and  _408
REMARK  171  A    between atoms: _408  and  _409
REMARK  172  A    between atoms: _411  and  _413
REMARK  173  A    between atoms: _413  and  _414
REMARK  174  A    between atoms: _413  and  _416
REMARK  175  A    between atoms: _416  and  _417
REMARK  176  A    between atoms: _423  and  _425
REMARK  177  A    between atoms: _425  and  _426
REMARK  178  A    between atoms: _425  and  _428
REMARK  179  A    between atoms: _428  and  _429
REMARK  180  A    between atoms: _432  and  _434
REMARK  181  A    between atoms: _434  and  _435
REMARK  182  A    between atoms: _434  and  _437
REMARK  183  A    between atoms: _440  and  _442
REMARK  184  A    between atoms: _442  and  _443
REMARK  185  A    between atoms: _442  and  _445
REMARK  186  A    between atoms: _445  and  _446
REMARK  187  A    between atoms: _450  and  _451
REMARK  188  A    between atoms: _456  and  _458
REMARK  189  A    between atoms: _458  and  _459
REMARK  190  A    between atoms: _458  and  _461
REMARK  191  A    between atoms: _461  and  _462
REMARK  192  A    between atoms: _466  and  _467
REMARK  193  A    between atoms: _472  and  _474
REMARK  194  A    between atoms: _474  and  _475
REMARK  195  A    between atoms: _474  and  _477
REMARK  196  A    between atoms: _480  and  _482
REMARK  197  A    between atoms: _482  and  _483
REMARK  198  A    between atoms: _482  and  _485
REMARK  199  A    between atoms: _485  and  _486
REMARK  200  A    between atoms: _491  and  _493
REMARK  201  A    between atoms: _493  and  _494
REMARK  202  A    between atoms: _493  and  _496
REMARK  203  A    between atoms: _496  and  _497
REMARK  204  A    between atoms: _500  and  _502
REMARK  205  A    between atoms: _502  and  _503
REMARK  206  A    between atoms: _502  and  _505
REMARK  207  A    between atoms: _505  and  _506
REMARK  208  A    between atoms: _509  and  _511
REMARK  209  A    between atoms: _511  and  _512
REMARK  210  A    between atoms: _514  and  _516
REMARK  211  A    between atoms: _516  and  _517
REMARK  212  A    between atoms: _516  and  _519
REMARK  213  A    between atoms: _519  and  _520
REMARK  214  A    between atoms: _520  and  _521
REMARK  215  A    between atoms: _521  and  _522
REMARK  216  A    between atoms: _531  and  _533
REMARK  217  A    between atoms: _533  and  _534
REMARK  218  A    between atoms: _533  and  _536
REMARK  219  A    between atoms: _536  and  _537
REMARK                            x       y       z     vdW  Elec       q    Type
REMARK                         _______ _______ _______ _____ _____    ______ ____
ROOT
ATOM      1  O   HOH     1      20.076  32.278  23.163  0.00  0.00    +0.000 OA
ENDROOT
TORSDOF 0
REMARK  Name = ../refined-set-2016/2qi3/2qi3_pocket.pdb
REMARK  219 active torsions:
REMARK  status: ('A' for Active; 'I' for Inactive)
REMARK    1  A    between atoms: _1  and  _3
REMARK    2  A    between atoms: _3  and  _4
REMARK    3  A    between atoms: _3  and  _6
REMARK    4  A    between atoms: _6  and  _7
REMARK    5  A    between atoms: _7  and  _8
REMARK    6  A    between atoms: _8  and  _9
REMARK    7  A    between atoms: _18  and  _20
REMARK    8  A    between atoms: _20  and  _21
REMARK    9  A    between atoms: _20  and  _23
REMARK   10  A    between atoms: _23  and  _24
REMARK   11  A    between atoms: _27  and  _29
REMARK   12  A    between atoms: _29  and  _30
REMARK   13  A    between atoms: _29  and  _32
REMARK   14  A    between atoms: _32  and  _33
REMARK   15  A    between atoms: _36  and  _38
REMARK   16  A    between atoms: _38  and  _39
REMARK   17  A    between atoms: _38  and  _41
REMARK   18  A    between atoms: _41  and  _42
REMARK   19  A    between atoms: _45  and  _47
REMARK   20  A    between atoms: _47  and  _48
REMARK   21  A    between atoms: _47  and  _50
REMARK   22  A    between atoms: _50  and  _51
REMARK   23  A    between atoms: _54  and  _56
REMARK   24  A    between atoms: _56  and  _57
REMARK   25  A    between atoms: _59  and  _61
REMARK   26  A    between atoms: _61  and  _62
REMARK   27  A    between atoms: _65  and  _67
REMARK   28  A    between atoms: _67  and  _68
REMARK   29  A    between atoms: _67  and  _70
REMARK   30  A    between atoms: _70  and  _71
REMARK   31  A    between atoms: _74  and  _76
REMARK   32  A    between atoms: _76  and  _77
REMARK   33  A    between atoms: _76  and  _79
REMARK   34  A    between atoms: _79  and  _80
REMARK   35  A    between atoms: _83  and  _85
REMARK   36  A    between atoms: _85  and  _86
REMARK   37  A    between atoms: _85  and  _88
REMARK   38  A    between atoms: _88  and  _89
REMARK   39  A    between atoms: _92  and  _94
REMARK   40  A    between atoms: _94  and  _95
REMARK   41  A    between atoms: _94  and  _97
REMARK   42  A    between atoms: _100  and  _102
REMARK   43  A    between atoms: _102  and  _103
REMARK   44  A    between atoms: _102  and  _105
REMARK   45  A    between atoms: _105  and  _106
REMARK   46  A    between atoms: _106  and  _107
REMARK   47  A    between atoms: _109  and  _111
REMARK   48  A    between atoms: _111  and  _112
REMARK   49  A    between atoms: _111  and  _114
REMARK   50  A    between atoms: _114  and  _115
REMARK   51  A    between atoms: _118  and  _120
REMARK   52  A    between atoms: _120  and  _121
REMARK   53  A    between atoms: _123  and  _125
REMARK   54  A    between atoms: _125  and  _126
REMARK   55  A    between atoms: _128  and  _130
REMARK   56  A    between atoms: _130  and  _131
REMARK   57  A    between atoms: _130  and  _133
REMARK   58  A    between atoms: _133  and  _134
REMARK   59  A    between atoms: _137  and  _139
REMARK   60  A    between atoms: _139  and  _140
REMARK   61  A    between atoms: _142  and  _144
REMARK   62  A    between atoms: _144  and  _145
REMARK   63  A    between atoms: _147  and  _149
REMARK   64  A    between atoms: _149  and  _150
REMARK   65  A    between atoms: _149  and  _152
REMARK   66  A    between atoms: _152  and  _153
REMARK   67  A    between atoms: _159  and  _161
REMARK   68  A    between atoms: _161  and  _162
REMARK   69  A    between atoms: _161  and  _164
REMARK   70  A    between atoms: _164  and  _165
REMARK   71  A    between atoms: _168  and  _170
REMARK   72  A    between atoms: _170  and  _171
REMARK   73  A    between atoms: _170  and  _173
REMARK   74  A    between atoms: _173  and  _174
REMARK   75  A    between atoms: _177  and  _179
REMARK   76  A    between atoms: _179  and  _180
REMARK   77  A    between atoms: _179  and  _182
REMARK   78  A    between atoms: _182  and  _183
REMARK   79  A    between atoms: _187  and  _188
REMARK   80  A    between atoms: _193  and  _195
REMARK   81  A    between atoms: _195  and  _196
REMARK   82  A    between atoms: _195  and  _198
REMARK   83  A    between atoms: _201  and  _203
REMARK   84  A    between atoms: _203  and  _204
REMARK   85  A    between atoms: _203  and  _206
REMARK   86  A    between atoms: _206  and  _207
REMARK   87  A    between atoms: _212  and  _214
REMARK   88  A    between atoms: _214  and  _215
REMARK   89  A    between atoms: _214  and  _217
REMARK   90  A    between atoms: _217  and  _218
REMARK   91  A    between atoms: _221  and  _223
REMARK   92  A    between atoms: _223  and  _224
REMARK   93  A    between atoms: _223  and  _226
REMARK   94  A    between atoms: _226  and  _227
REMARK   95  A    between atoms: _230  and  _232
REMARK   96  A    between atoms: _232  and  _233
REMARK   97  A    between atoms: _235  and  _237
REMARK   98  A    between atoms: _237  and  _238
REMARK   99  A    between atoms: _237  and  _240
REMARK  100  A    between atoms: _240  and  _241
REMARK  101  A    between atoms: _241  and  _242
REMARK  102  A    between atoms: _242  and  _243
REMARK  103  A    between atoms: _252  and  _254
REMARK  104  A    between atoms: _254  and  _255
REMARK  105  A    between atoms: _254  and  _257
REMARK  106  A    between atoms: _257  and  _258
REMARK  107  A    between atoms: _258  and  _259
REMARK  108  A    between atoms: _259  and  _260
REMARK  109  A    between atoms: _269  and  _271
REMARK  110  A    between atoms: _271  and  _272
REMARK  111  A    between atoms: _271  and  _274
REMARK  112  A    between atoms: _274  and  _275
REMARK  113  A    between atoms: _278  and  _280
REMARK  114  A    between atoms: _280  and  _281
REMARK  115  A    between atoms: _280  and  _283
REMARK  116  A    between atoms: _283  and  _284
REMARK  117  A    between atoms: _287  and  _289
REMARK  118  A    between atoms: _289  and  _290
REMARK  119  A    between atoms: _289  and  _292
REMARK  120  A    between atoms: _292  and  _293
REMARK  121  A    between atoms: _296  and  _298
REMARK  122  A    between atoms: _298  and  _299
REMARK  123  A    between atoms: _298  and  _301
REMARK  124  A    between atoms: _301  and  _302
REMARK  125  A    between atoms: _305  and  _307
REMARK  126  A    between atoms: _307  and  _308
REMARK  127  A    between atoms: _310  and  _312
REMARK  128  A    between atoms: _312  and  _313
REMARK  129  A    between atoms: _316  and  _318
REMARK  130  A    between atoms: _318  and  _319
REMARK  131  A    between atoms: _318  and  _321
REMARK  132  A    between atoms: _321  and  _322
REMARK  133  A    between atoms: _325  and  _327
REMARK  134  A    between atoms: _327  and  _328
REMARK  135  A    between atoms: _327  and  _330
REMARK  136  A    between atoms: _330  and  _331
REMARK  137  A    between atoms: _334  and  _336
REMARK  138  A    between atoms: _336  and  _337
REMARK  139  A    between atoms: _336  and  _339
REMARK  140  A    between atoms: _339  and  _340
REMARK  141  A    between atoms: _343  and  _345
REMARK  142  A    between atoms: _345  and  _346
REMARK  143  A    between atoms: _345  and  _348
REMARK  144  A    between atoms: _351  and  _353
REMARK  145  A    between atoms: _353  and  _354
REMARK  146  A    between atoms: _353  and  _356
REMARK  147  A    between atoms: _356  and  _357
REMARK  148  A    between atoms: _357  and  _358
REMARK  149  A    between atoms: _358  and  _359
REMARK  150  A    between atoms: _359  and  _360
REMARK  151  A    between atoms: _364  and  _366
REMARK  152  A    between atoms: _366  and  _367
REMARK  153  A    between atoms: _366  and  _369
REMARK  154  A    between atoms: _369  and  _370
REMARK  155  A    between atoms: _370  and  _371
REMARK  156  A    between atoms: _373  and  _375
REMARK  157  A    between atoms: _375  and  _376
REMARK  158  A    between atoms: _375  and  _378
REMARK  159  A    between atoms: _378  and  _379
REMARK  160  A    between atoms: _382  and  _384
REMARK  161  A    between atoms: _384  and  _385
REMARK  162  A    between atoms: _387  and  _389
REMARK  163  A    between atoms: _389  and  _390
REMARK  164  A    between atoms: _392  and  _394
REMARK  165  A    between atoms: _394  and  _395
REMARK  166  A    between atoms: _394  and  _397
REMARK  167  A    between atoms: _397  and  _398
REMARK  168  A    between atoms: _401  and  _403
REMARK  169  A    between atoms: _403  and  _404
REMARK  170  A    between atoms: _406  and  _408
REMARK  171  A    between atoms: _408  and  _409
REMARK  172  A    between atoms: _411  and  _413
REMARK  173  A    between atoms: _413  and  _414
REMARK  174  A    between atoms: _413  and  _416
REMARK  175  A    between atoms: _416  and  _417
REMARK  176  A    between atoms: _423  and  _425
REMARK  177  A    between atoms: _425  and  _426
REMARK  178  A    between atoms: _425  and  _428
REMARK  179  A    between atoms: _428  and  _429
REMARK  180  A    between atoms: _432  and  _434
REMARK  181  A    between atoms: _434  and  _435
REMARK  182  A    between atoms: _434  and  _437
REMARK  183  A    between atoms: _440  and  _442
REMARK  184  A    between atoms: _442  and  _443
REMARK  185  A    between atoms: _442  and  _445
REMARK  186  A    between atoms: _445  and  _446
REMARK  187  A    between atoms: _450  and  _451
REMARK  188  A    between atoms: _456  and  _458
REMARK  189  A    between atoms: _458  and  _459
REMARK  190  A    between atoms: _458  and  _461
REMARK  191  A    between atoms: _461  and  _462
REMARK  192  A    between atoms: _466  and  _467
REMARK  193  A    between atoms: _472  and  _474
REMARK  194  A    between atoms: _474  and  _475
REMARK  195  A    between atoms: _474  and  _477
REMARK  196  A    between atoms: _480  and  _482
REMARK  197  A    between atoms: _482  and  _483
REMARK  198  A    between atoms: _482  and  _485
REMARK  199  A    between atoms: _485  and  _486
REMARK  200  A    between atoms: _491  and  _493
REMARK  201  A    between atoms: _493  and  _494
REMARK  202  A    between atoms: _493  and  _496
REMARK  203  A    between atoms: _496  and  _497
REMARK  204  A    between atoms: _500  and  _502
REMARK  205  A    between atoms: _502  and  _503
REMARK  206  A    between atoms: _502  and  _505
REMARK  207  A    between atoms: _505  and  _506
REMARK  208  A    between atoms: _509  and  _511
REMARK  209  A    between atoms: _511  and  _512
REMARK  210  A    between atoms: _514  and  _516
REMARK  211  A    between atoms: _516  and  _517
REMARK  212  A    between atoms: _516  and  _519
REMARK  213  A    between atoms: _519  and  _520
REMARK  214  A    between atoms: _520  and  _521
REMARK  215  A    between atoms: _521  and  _522
REMARK  216  A    between atoms: _531  and  _533
REMARK  217  A    between atoms: _533  and  _534
REMARK  218  A    between atoms: _533  and  _536
REMARK  219  A    between atoms: _536  and  _537
REMARK                            x       y       z     vdW  Elec       q    Type
REMARK                         _______ _______ _______ _____ _____    ______ ____
ROOT
ATOM      1  O   HOH     1      20.686  34.141  21.473  0.00  0.00    +0.000 OA
ENDROOT
TORSDOF 0
REMARK  Name = ../refined-set-2016/2qi3/2qi3_pocket.pdb
REMARK  219 active torsions:
REMARK  status: ('A' for Active; 'I' for Inactive)
REMARK    1  A    between atoms: _1  and  _3
REMARK    2  A    between atoms: _3  and  _4
REMARK    3  A    between atoms: _3  and  _6
REMARK    4  A    between atoms: _6  and  _7
REMARK    5  A    between atoms: _7  and  _8
REMARK    6  A    between atoms: _8  and  _9
REMARK    7  A    between atoms: _18  and  _20
REMARK    8  A    between atoms: _20  and  _21
REMARK    9  A    between atoms: _20  and  _23
REMARK   10  A    between atoms: _23  and  _24
REMARK   11  A    between atoms: _27  and  _29
REMARK   12  A    between atoms: _29  and  _30
REMARK   13  A    between atoms: _29  and  _32
REMARK   14  A    between atoms: _32  and  _33
REMARK   15  A    between atoms: _36  and  _38
REMARK   16  A    between atoms: _38  and  _39
REMARK   17  A    between atoms: _38  and  _41
REMARK   18  A    between atoms: _41  and  _42
REMARK   19  A    between atoms: _45  and  _47
REMARK   20  A    between atoms: _47  and  _48
REMARK   21  A    between atoms: _47  and  _50
REMARK   22  A    between atoms: _50  and  _51
REMARK   23  A    between atoms: _54  and  _56
REMARK   24  A    between atoms: _56  and  _57
REMARK   25  A    between atoms: _59  and  _61
REMARK   26  A    between atoms: _61  and  _62
REMARK   27  A    between atoms: _65  and  _67
REMARK   28  A    between atoms: _67  and  _68
REMARK   29  A    between atoms: _67  and  _70
REMARK   30  A    between atoms: _70  and  _71
REMARK   31  A    between atoms: _74  and  _76
REMARK   32  A    between atoms: _76  and  _77
REMARK   33  A    between atoms: _76  and  _79
REMARK   34  A    between atoms: _79  and  _80
REMARK   35  A    between atoms: _83  and  _85
REMARK   36  A    between atoms: _85  and  _86
REMARK   37  A    between atoms: _85  and  _88
REMARK   38  A    between atoms: _88  and  _89
REMARK   39  A    between atoms: _92  and  _94
REMARK   40  A    between atoms: _94  and  _95
REMARK   41  A    between atoms: _94  and  _97
REMARK   42  A    between atoms: _100  and  _102
REMARK   43  A    between atoms: _102  and  _103
REMARK   44  A    between atoms: _102  and  _105
REMARK   45  A    between atoms: _105  and  _106
REMARK   46  A    between atoms: _106  and  _107
REMARK   47  A    between atoms: _109  and  _111
REMARK   48  A    between atoms: _111  and  _112
REMARK   49  A    between atoms: _111  and  _114
REMARK   50  A    between atoms: _114  and  _115
REMARK   51  A    between atoms: _118  and  _120
REMARK   52  A    between atoms: _120  and  _121
REMARK   53  A    between atoms: _123  and  _125
REMARK   54  A    between atoms: _125  and  _126
REMARK   55  A    between atoms: _128  and  _130
REMARK   56  A    between atoms: _130  and  _131
REMARK   57  A    between atoms: _130  and  _133
REMARK   58  A    between atoms: _133  and  _134
REMARK   59  A    between atoms: _137  and  _139
REMARK   60  A    between atoms: _139  and  _140
REMARK   61  A    between atoms: _142  and  _144
REMARK   62  A    between atoms: _144  and  _145
REMARK   63  A    between atoms: _147  and  _149
REMARK   64  A    between atoms: _149  and  _150
REMARK   65  A    between atoms: _149  and  _152
REMARK   66  A    between atoms: _152  and  _153
REMARK   67  A    between atoms: _159  and  _161
REMARK   68  A    between atoms: _161  and  _162
REMARK   69  A    between atoms: _161  and  _164
REMARK   70  A    between atoms: _164  and  _165
REMARK   71  A    between atoms: _168  and  _170
REMARK   72  A    between atoms: _170  and  _171
REMARK   73  A    between atoms: _170  and  _173
REMARK   74  A    between atoms: _173  and  _174
REMARK   75  A    between atoms: _177  and  _179
REMARK   76  A    between atoms: _179  and  _180
REMARK   77  A    between atoms: _179  and  _182
REMARK   78  A    between atoms: _182  and  _183
REMARK   79  A    between atoms: _187  and  _188
REMARK   80  A    between atoms: _193  and  _195
REMARK   81  A    between atoms: _195  and  _196
REMARK   82  A    between atoms: _195  and  _198
REMARK   83  A    between atoms: _201  and  _203
REMARK   84  A    between atoms: _203  and  _204
REMARK   85  A    between atoms: _203  and  _206
REMARK   86  A    between atoms: _206  and  _207
REMARK   87  A    between atoms: _212  and  _214
REMARK   88  A    between atoms: _214  and  _215
REMARK   89  A    between atoms: _214  and  _217
REMARK   90  A    between atoms: _217  and  _218
REMARK   91  A    between atoms: _221  and  _223
REMARK   92  A    between atoms: _223  and  _224
REMARK   93  A    between atoms: _223  and  _226
REMARK   94  A    between atoms: _226  and  _227
REMARK   95  A    between atoms: _230  and  _232
REMARK   96  A    between atoms: _232  and  _233
REMARK   97  A    between atoms: _235  and  _237
REMARK   98  A    between atoms: _237  and  _238
REMARK   99  A    between atoms: _237  and  _240
REMARK  100  A    between atoms: _240  and  _241
REMARK  101  A    between atoms: _241  and  _242
REMARK  102  A    between atoms: _242  and  _243
REMARK  103  A    between atoms: _252  and  _254
REMARK  104  A    between atoms: _254  and  _255
REMARK  105  A    between atoms: _254  and  _257
REMARK  106  A    between atoms: _257  and  _258
REMARK  107  A    between atoms: _258  and  _259
REMARK  108  A    between atoms: _259  and  _260
REMARK  109  A    between atoms: _269  and  _271
REMARK  110  A    between atoms: _271  and  _272
REMARK  111  A    between atoms: _271  and  _274
REMARK  112  A    between atoms: _274  and  _275
REMARK  113  A    between atoms: _278  and  _280
REMARK  114  A    between atoms: _280  and  _281
REMARK  115  A    between atoms: _280  and  _283
REMARK  116  A    between atoms: _283  and  _284
REMARK  117  A    between atoms: _287  and  _289
REMARK  118  A    between atoms: _289  and  _290
REMARK  119  A    between atoms: _289  and  _292
REMARK  120  A    between atoms: _292  and  _293
REMARK  121  A    between atoms: _296  and  _298
REMARK  122  A    between atoms: _298  and  _299
REMARK  123  A    between atoms: _298  and  _301
REMARK  124  A    between atoms: _301  and  _302
REMARK  125  A    between atoms: _305  and  _307
REMARK  126  A    between atoms: _307  and  _308
REMARK  127  A    between atoms: _310  and  _312
REMARK  128  A    between atoms: _312  and  _313
REMARK  129  A    between atoms: _316  and  _318
REMARK  130  A    between atoms: _318  and  _319
REMARK  131  A    between atoms: _318  and  _321
REMARK  132  A    between atoms: _321  and  _322
REMARK  133  A    between atoms: _325  and  _327
REMARK  134  A    between atoms: _327  and  _328
REMARK  135  A    between atoms: _327  and  _330
REMARK  136  A    between atoms: _330  and  _331
REMARK  137  A    between atoms: _334  and  _336
REMARK  138  A    between atoms: _336  and  _337
REMARK  139  A    between atoms: _336  and  _339
REMARK  140  A    between atoms: _339  and  _340
REMARK  141  A    between atoms: _343  and  _345
REMARK  142  A    between atoms: _345  and  _346
REMARK  143  A    between atoms: _345  and  _348
REMARK  144  A    between atoms: _351  and  _353
REMARK  145  A    between atoms: _353  and  _354
REMARK  146  A    between atoms: _353  and  _356
REMARK  147  A    between atoms: _356  and  _357
REMARK  148  A    between atoms: _357  and  _358
REMARK  149  A    between atoms: _358  and  _359
REMARK  150  A    between atoms: _359  and  _360
REMARK  151  A    between atoms: _364  and  _366
REMARK  152  A    between atoms: _366  and  _367
REMARK  153  A    between atoms: _366  and  _369
REMARK  154  A    between atoms: _369  and  _370
REMARK  155  A    between atoms: _370  and  _371
REMARK  156  A    between atoms: _373  and  _375
REMARK  157  A    between atoms: _375  and  _376
REMARK  158  A    between atoms: _375  and  _378
REMARK  159  A    between atoms: _378  and  _379
REMARK  160  A    between atoms: _382  and  _384
REMARK  161  A    between atoms: _384  and  _385
REMARK  162  A    between atoms: _387  and  _389
REMARK  163  A    between atoms: _389  and  _390
REMARK  164  A    between atoms: _392  and  _394
REMARK  165  A    between atoms: _394  and  _395
REMARK  166  A    between atoms: _394  and  _397
REMARK  167  A    between atoms: _397  and  _398
REMARK  168  A    between atoms: _401  and  _403
REMARK  169  A    between atoms: _403  and  _404
REMARK  170  A    between atoms: _406  and  _408
REMARK  171  A    between atoms: _408  and  _409
REMARK  172  A    between atoms: _411  and  _413
REMARK  173  A    between atoms: _413  and  _414
REMARK  174  A    between atoms: _413  and  _416
REMARK  175  A    between atoms: _416  and  _417
REMARK  176  A    between atoms: _423  and  _425
REMARK  177  A    between atoms: _425  and  _426
REMARK  178  A    between atoms: _425  and  _428
REMARK  179  A    between atoms: _428  and  _429
REMARK  180  A    between atoms: _432  and  _434
REMARK  181  A    between atoms: _434  and  _435
REMARK  182  A    between atoms: _434  and  _437
REMARK  183  A    between atoms: _440  and  _442
REMARK  184  A    between atoms: _442  and  _443
REMARK  185  A    between atoms: _442  and  _445
REMARK  186  A    between atoms: _445  and  _446
REMARK  187  A    between atoms: _450  and  _451
REMARK  188  A    between atoms: _456  and  _458
REMARK  189  A    between atoms: _458  and  _459
REMARK  190  A    between atoms: _458  and  _461
REMARK  191  A    between atoms: _461  and  _462
REMARK  192  A    between atoms: _466  and  _467
REMARK  193  A    between atoms: _472  and  _474
REMARK  194  A    between atoms: _474  and  _475
REMARK  195  A    between atoms: _474  and  _477
REMARK  196  A    between atoms: _480  and  _482
REMARK  197  A    between atoms: _482  and  _483
REMARK  198  A    between atoms: _482  and  _485
REMARK  199  A    between atoms: _485  and  _486
REMARK  200  A    between atoms: _491  and  _493
REMARK  201  A    between atoms: _493  and  _494
REMARK  202  A    between atoms: _493  and  _496
REMARK  203  A    between atoms: _496  and  _497
REMARK  204  A    between atoms: _500  and  _502
REMARK  205  A    between atoms: _502  and  _503
REMARK  206  A    between atoms: _502  and  _505
REMARK  207  A    between atoms: _505  and  _506
REMARK  208  A    between atoms: _509  and  _511
REMARK  209  A    between atoms: _511  and  _512
REMARK  210  A    between atoms: _514  and  _516
REMARK  211  A    between atoms: _516  and  _517
REMARK  212  A    between atoms: _516  and  _519
REMARK  213  A    between atoms: _519  and  _520
REMARK  214  A    between atoms: _520  and  _521
REMARK  215  A    between atoms: _521  and  _522
REMARK  216  A    between atoms: _531  and  _533
REMARK  217  A    between atoms: _533  and  _534
REMARK  218  A    between atoms: _533  and  _536
REMARK  219  A    between atoms: _536  and  _537
REMARK                            x       y       z     vdW  Elec       q    Type
REMARK                         _______ _______ _______ _____ _____    ______ ____
ROOT
ATOM      1  O   HOH     1      18.523  34.425  19.072  0.00  0.00    +0.000 OA
ENDROOT
TORSDOF 0
REMARK  Name = ../refined-set-2016/2qi3/2qi3_pocket.pdb
REMARK  219 active torsions:
REMARK  status: ('A' for Active; 'I' for Inactive)
REMARK    1  A    between atoms: _1  and  _3
REMARK    2  A    between atoms: _3  and  _4
REMARK    3  A    between atoms: _3  and  _6
REMARK    4  A    between atoms: _6  and  _7
REMARK    5  A    between atoms: _7  and  _8
REMARK    6  A    between atoms: _8  and  _9
REMARK    7  A    between atoms: _18  and  _20
REMARK    8  A    between atoms: _20  and  _21
REMARK    9  A    between atoms: _20  and  _23
REMARK   10  A    between atoms: _23  and  _24
REMARK   11  A    between atoms: _27  and  _29
REMARK   12  A    between atoms: _29  and  _30
REMARK   13  A    between atoms: _29  and  _32
REMARK   14  A    between atoms: _32  and  _33
REMARK   15  A    between atoms: _36  and  _38
REMARK   16  A    between atoms: _38  and  _39
REMARK   17  A    between atoms: _38  and  _41
REMARK   18  A    between atoms: _41  and  _42
REMARK   19  A    between atoms: _45  and  _47
REMARK   20  A    between atoms: _47  and  _48
REMARK   21  A    between atoms: _47  and  _50
REMARK   22  A    between atoms: _50  and  _51
REMARK   23  A    between atoms: _54  and  _56
REMARK   24  A    between atoms: _56  and  _57
REMARK   25  A    between atoms: _59  and  _61
REMARK   26  A    between atoms: _61  and  _62
REMARK   27  A    between atoms: _65  and  _67
REMARK   28  A    between atoms: _67  and  _68
REMARK   29  A    between atoms: _67  and  _70
REMARK   30  A    between atoms: _70  and  _71
REMARK   31  A    between atoms: _74  and  _76
REMARK   32  A    between atoms: _76  and  _77
REMARK   33  A    between atoms: _76  and  _79
REMARK   34  A    between atoms: _79  and  _80
REMARK   35  A    between atoms: _83  and  _85
REMARK   36  A    between atoms: _85  and  _86
REMARK   37  A    between atoms: _85  and  _88
REMARK   38  A    between atoms: _88  and  _89
REMARK   39  A    between atoms: _92  and  _94
REMARK   40  A    between atoms: _94  and  _95
REMARK   41  A    between atoms: _94  and  _97
REMARK   42  A    between atoms: _100  and  _102
REMARK   43  A    between atoms: _102  and  _103
REMARK   44  A    between atoms: _102  and  _105
REMARK   45  A    between atoms: _105  and  _106
REMARK   46  A    between atoms: _106  and  _107
REMARK   47  A    between atoms: _109  and  _111
REMARK   48  A    between atoms: _111  and  _112
REMARK   49  A    between atoms: _111  and  _114
REMARK   50  A    between atoms: _114  and  _115
REMARK   51  A    between atoms: _118  and  _120
REMARK   52  A    between atoms: _120  and  _121
REMARK   53  A    between atoms: _123  and  _125
REMARK   54  A    between atoms: _125  and  _126
REMARK   55  A    between atoms: _128  and  _130
REMARK   56  A    between atoms: _130  and  _131
REMARK   57  A    between atoms: _130  and  _133
REMARK   58  A    between atoms: _133  and  _134
REMARK   59  A    between atoms: _137  and  _139
REMARK   60  A    between atoms: _139  and  _140
REMARK   61  A    between atoms: _142  and  _144
REMARK   62  A    between atoms: _144  and  _145
REMARK   63  A    between atoms: _147  and  _149
REMARK   64  A    between atoms: _149  and  _150
REMARK   65  A    between atoms: _149  and  _152
REMARK   66  A    between atoms: _152  and  _153
REMARK   67  A    between atoms: _159  and  _161
REMARK   68  A    between atoms: _161  and  _162
REMARK   69  A    between atoms: _161  and  _164
REMARK   70  A    between atoms: _164  and  _165
REMARK   71  A    between atoms: _168  and  _170
REMARK   72  A    between atoms: _170  and  _171
REMARK   73  A    between atoms: _170  and  _173
REMARK   74  A    between atoms: _173  and  _174
REMARK   75  A    between atoms: _177  and  _179
REMARK   76  A    between atoms: _179  and  _180
REMARK   77  A    between atoms: _179  and  _182
REMARK   78  A    between atoms: _182  and  _183
REMARK   79  A    between atoms: _187  and  _188
REMARK   80  A    between atoms: _193  and  _195
REMARK   81  A    between atoms: _195  and  _196
REMARK   82  A    between atoms: _195  and  _198
REMARK   83  A    between atoms: _201  and  _203
REMARK   84  A    between atoms: _203  and  _204
REMARK   85  A    between atoms: _203  and  _206
REMARK   86  A    between atoms: _206  and  _207
REMARK   87  A    between atoms: _212  and  _214
REMARK   88  A    between atoms: _214  and  _215
REMARK   89  A    between atoms: _214  and  _217
REMARK   90  A    between atoms: _217  and  _218
REMARK   91  A    between atoms: _221  and  _223
REMARK   92  A    between atoms: _223  and  _224
REMARK   93  A    between atoms: _223  and  _226
REMARK   94  A    between atoms: _226  and  _227
REMARK   95  A    between atoms: _230  and  _232
REMARK   96  A    between atoms: _232  and  _233
REMARK   97  A    between atoms: _235  and  _237
REMARK   98  A    between atoms: _237  and  _238
REMARK   99  A    between atoms: _237  and  _240
REMARK  100  A    between atoms: _240  and  _241
REMARK  101  A    between atoms: _241  and  _242
REMARK  102  A    between atoms: _242  and  _243
REMARK  103  A    between atoms: _252  and  _254
REMARK  104  A    between atoms: _254  and  _255
REMARK  105  A    between atoms: _254  and  _257
REMARK  106  A    between atoms: _257  and  _258
REMARK  107  A    between atoms: _258  and  _259
REMARK  108  A    between atoms: _259  and  _260
REMARK  109  A    between atoms: _269  and  _271
REMARK  110  A    between atoms: _271  and  _272
REMARK  111  A    between atoms: _271  and  _274
REMARK  112  A    between atoms: _274  and  _275
REMARK  113  A    between atoms: _278  and  _280
REMARK  114  A    between atoms: _280  and  _281
REMARK  115  A    between atoms: _280  and  _283
REMARK  116  A    between atoms: _283  and  _284
REMARK  117  A    between atoms: _287  and  _289
REMARK  118  A    between atoms: _289  and  _290
REMARK  119  A    between atoms: _289  and  _292
REMARK  120  A    between atoms: _292  and  _293
REMARK  121  A    between atoms: _296  and  _298
REMARK  122  A    between atoms: _298  and  _299
REMARK  123  A    between atoms: _298  and  _301
REMARK  124  A    between atoms: _301  and  _302
REMARK  125  A    between atoms: _305  and  _307
REMARK  126  A    between atoms: _307  and  _308
REMARK  127  A    between atoms: _310  and  _312
REMARK  128  A    between atoms: _312  and  _313
REMARK  129  A    between atoms: _316  and  _318
REMARK  130  A    between atoms: _318  and  _319
REMARK  131  A    between atoms: _318  and  _321
REMARK  132  A    between atoms: _321  and  _322
REMARK  133  A    between atoms: _325  and  _327
REMARK  134  A    between atoms: _327  and  _328
REMARK  135  A    between atoms: _327  and  _330
REMARK  136  A    between atoms: _330  and  _331
REMARK  137  A    between atoms: _334  and  _336
REMARK  138  A    between atoms: _336  and  _337
REMARK  139  A    between atoms: _336  and  _339
REMARK  140  A    between atoms: _339  and  _340
REMARK  141  A    between atoms: _343  and  _345
REMARK  142  A    between atoms: _345  and  _346
REMARK  143  A    between atoms: _345  and  _348
REMARK  144  A    between atoms: _351  and  _353
REMARK  145  A    between atoms: _353  and  _354
REMARK  146  A    between atoms: _353  and  _356
REMARK  147  A    between atoms: _356  and  _357
REMARK  148  A    between atoms: _357  and  _358
REMARK  149  A    between atoms: _358  and  _359
REMARK  150  A    between atoms: _359  and  _360
REMARK  151  A    between atoms: _364  and  _366
REMARK  152  A    between atoms: _366  and  _367
REMARK  153  A    between atoms: _366  and  _369
REMARK  154  A    between atoms: _369  and  _370
REMARK  155  A    between atoms: _370  and  _371
REMARK  156  A    between atoms: _373  and  _375
REMARK  157  A    between atoms: _375  and  _376
REMARK  158  A    between atoms: _375  and  _378
REMARK  159  A    between atoms: _378  and  _379
REMARK  160  A    between atoms: _382  and  _384
REMARK  161  A    between atoms: _384  and  _385
REMARK  162  A    between atoms: _387  and  _389
REMARK  163  A    between atoms: _389  and  _390
REMARK  164  A    between atoms: _392  and  _394
REMARK  165  A    between atoms: _394  and  _395
REMARK  166  A    between atoms: _394  and  _397
REMARK  167  A    between atoms: _397  and  _398
REMARK  168  A    between atoms: _401  and  _403
REMARK  169  A    between atoms: _403  and  _404
REMARK  170  A    between atoms: _406  and  _408
REMARK  171  A    between atoms: _408  and  _409
REMARK  172  A    between atoms: _411  and  _413
REMARK  173  A    between atoms: _413  and  _414
REMARK  174  A    between atoms: _413  and  _416
REMARK  175  A    between atoms: _416  and  _417
REMARK  176  A    between atoms: _423  and  _425
REMARK  177  A    between atoms: _425  and  _426
REMARK  178  A    between atoms: _425  and  _428
REMARK  179  A    between atoms: _428  and  _429
REMARK  180  A    between atoms: _432  and  _434
REMARK  181  A    between atoms: _434  and  _435
REMARK  182  A    between atoms: _434  and  _437
REMARK  183  A    between atoms: _440  and  _442
REMARK  184  A    between atoms: _442  and  _443
REMARK  185  A    between atoms: _442  and  _445
REMARK  186  A    between atoms: _445  and  _446
REMARK  187  A    between atoms: _450  and  _451
REMARK  188  A    between atoms: _456  and  _458
REMARK  189  A    between atoms: _458  and  _459
REMARK  190  A    between atoms: _458  and  _461
REMARK  191  A    between atoms: _461  and  _462
REMARK  192  A    between atoms: _466  and  _467
REMARK  193  A    between atoms: _472  and  _474
REMARK  194  A    between atoms: _474  and  _475
REMARK  195  A    between atoms: _474  and  _477
REMARK  196  A    between atoms: _480  and  _482
REMARK  197  A    between atoms: _482  and  _483
REMARK  198  A    between atoms: _482  and  _485
REMARK  199  A    between atoms: _485  and  _486
REMARK  200  A    between atoms: _491  and  _493
REMARK  201  A    between atoms: _493  and  _494
REMARK  202  A    between atoms: _493  and  _496
REMARK  203  A    between atoms: _496  and  _497
REMARK  204  A    between atoms: _500  and  _502
REMARK  205  A    between atoms: _502  and  _503
REMARK  206  A    between atoms: _502  and  _505
REMARK  207  A    between atoms: _505  and  _506
REMARK  208  A    between atoms: _509  and  _511
REMARK  209  A    between atoms: _511  and  _512
REMARK  210  A    between atoms: _514  and  _516
REMARK  211  A    between atoms: _516  and  _517
REMARK  212  A    between atoms: _516  and  _519
REMARK  213  A    between atoms: _519  and  _520
REMARK  214  A    between atoms: _520  and  _521
REMARK  215  A    between atoms: _521  and  _522
REMARK  216  A    between atoms: _531  and  _533
REMARK  217  A    between atoms: _533  and  _534
REMARK  218  A    between atoms: _533  and  _536
REMARK  219  A    between atoms: _536  and  _537
REMARK                            x       y       z     vdW  Elec       q    Type
REMARK                         _______ _______ _______ _____ _____    ______ ____
ROOT
ATOM      1  O   HOH     1      21.891  24.174  11.431  0.00  0.00    +0.000 OA
ENDROOT
TORSDOF 0
REMARK  Name = ../refined-set-2016/2qi3/2qi3_pocket.pdb
REMARK  219 active torsions:
REMARK  status: ('A' for Active; 'I' for Inactive)
REMARK    1  A    between atoms: _1  and  _3
REMARK    2  A    between atoms: _3  and  _4
REMARK    3  A    between atoms: _3  and  _6
REMARK    4  A    between atoms: _6  and  _7
REMARK    5  A    between atoms: _7  and  _8
REMARK    6  A    between atoms: _8  and  _9
REMARK    7  A    between atoms: _18  and  _20
REMARK    8  A    between atoms: _20  and  _21
REMARK    9  A    between atoms: _20  and  _23
REMARK   10  A    between atoms: _23  and  _24
REMARK   11  A    between atoms: _27  and  _29
REMARK   12  A    between atoms: _29  and  _30
REMARK   13  A    between atoms: _29  and  _32
REMARK   14  A    between atoms: _32  and  _33
REMARK   15  A    between atoms: _36  and  _38
REMARK   16  A    between atoms: _38  and  _39
REMARK   17  A    between atoms: _38  and  _41
REMARK   18  A    between atoms: _41  and  _42
REMARK   19  A    between atoms: _45  and  _47
REMARK   20  A    between atoms: _47  and  _48
REMARK   21  A    between atoms: _47  and  _50
REMARK   22  A    between atoms: _50  and  _51
REMARK   23  A    between atoms: _54  and  _56
REMARK   24  A    between atoms: _56  and  _57
REMARK   25  A    between atoms: _59  and  _61
REMARK   26  A    between atoms: _61  and  _62
REMARK   27  A    between atoms: _65  and  _67
REMARK   28  A    between atoms: _67  and  _68
REMARK   29  A    between atoms: _67  and  _70
REMARK   30  A    between atoms: _70  and  _71
REMARK   31  A    between atoms: _74  and  _76
REMARK   32  A    between atoms: _76  and  _77
REMARK   33  A    between atoms: _76  and  _79
REMARK   34  A    between atoms: _79  and  _80
REMARK   35  A    between atoms: _83  and  _85
REMARK   36  A    between atoms: _85  and  _86
REMARK   37  A    between atoms: _85  and  _88
REMARK   38  A    between atoms: _88  and  _89
REMARK   39  A    between atoms: _92  and  _94
REMARK   40  A    between atoms: _94  and  _95
REMARK   41  A    between atoms: _94  and  _97
REMARK   42  A    between atoms: _100  and  _102
REMARK   43  A    between atoms: _102  and  _103
REMARK   44  A    between atoms: _102  and  _105
REMARK   45  A    between atoms: _105  and  _106
REMARK   46  A    between atoms: _106  and  _107
REMARK   47  A    between atoms: _109  and  _111
REMARK   48  A    between atoms: _111  and  _112
REMARK   49  A    between atoms: _111  and  _114
REMARK   50  A    between atoms: _114  and  _115
REMARK   51  A    between atoms: _118  and  _120
REMARK   52  A    between atoms: _120  and  _121
REMARK   53  A    between atoms: _123  and  _125
REMARK   54  A    between atoms: _125  and  _126
REMARK   55  A    between atoms: _128  and  _130
REMARK   56  A    between atoms: _130  and  _131
REMARK   57  A    between atoms: _130  and  _133
REMARK   58  A    between atoms: _133  and  _134
REMARK   59  A    between atoms: _137  and  _139
REMARK   60  A    between atoms: _139  and  _140
REMARK   61  A    between atoms: _142  and  _144
REMARK   62  A    between atoms: _144  and  _145
REMARK   63  A    between atoms: _147  and  _149
REMARK   64  A    between atoms: _149  and  _150
REMARK   65  A    between atoms: _149  and  _152
REMARK   66  A    between atoms: _152  and  _153
REMARK   67  A    between atoms: _159  and  _161
REMARK   68  A    between atoms: _161  and  _162
REMARK   69  A    between atoms: _161  and  _164
REMARK   70  A    between atoms: _164  and  _165
REMARK   71  A    between atoms: _168  and  _170
REMARK   72  A    between atoms: _170  and  _171
REMARK   73  A    between atoms: _170  and  _173
REMARK   74  A    between atoms: _173  and  _174
REMARK   75  A    between atoms: _177  and  _179
REMARK   76  A    between atoms: _179  and  _180
REMARK   77  A    between atoms: _179  and  _182
REMARK   78  A    between atoms: _182  and  _183
REMARK   79  A    between atoms: _187  and  _188
REMARK   80  A    between atoms: _193  and  _195
REMARK   81  A    between atoms: _195  and  _196
REMARK   82  A    between atoms: _195  and  _198
REMARK   83  A    between atoms: _201  and  _203
REMARK   84  A    between atoms: _203  and  _204
REMARK   85  A    between atoms: _203  and  _206
REMARK   86  A    between atoms: _206  and  _207
REMARK   87  A    between atoms: _212  and  _214
REMARK   88  A    between atoms: _214  and  _215
REMARK   89  A    between atoms: _214  and  _217
REMARK   90  A    between atoms: _217  and  _218
REMARK   91  A    between atoms: _221  and  _223
REMARK   92  A    between atoms: _223  and  _224
REMARK   93  A    between atoms: _223  and  _226
REMARK   94  A    between atoms: _226  and  _227
REMARK   95  A    between atoms: _230  and  _232
REMARK   96  A    between atoms: _232  and  _233
REMARK   97  A    between atoms: _235  and  _237
REMARK   98  A    between atoms: _237  and  _238
REMARK   99  A    between atoms: _237  and  _240
REMARK  100  A    between atoms: _240  and  _241
REMARK  101  A    between atoms: _241  and  _242
REMARK  102  A    between atoms: _242  and  _243
REMARK  103  A    between atoms: _252  and  _254
REMARK  104  A    between atoms: _254  and  _255
REMARK  105  A    between atoms: _254  and  _257
REMARK  106  A    between atoms: _257  and  _258
REMARK  107  A    between atoms: _258  and  _259
REMARK  108  A    between atoms: _259  and  _260
REMARK  109  A    between atoms: _269  and  _271
REMARK  110  A    between atoms: _271  and  _272
REMARK  111  A    between atoms: _271  and  _274
REMARK  112  A    between atoms: _274  and  _275
REMARK  113  A    between atoms: _278  and  _280
REMARK  114  A    between atoms: _280  and  _281
REMARK  115  A    between atoms: _280  and  _283
REMARK  116  A    between atoms: _283  and  _284
REMARK  117  A    between atoms: _287  and  _289
REMARK  118  A    between atoms: _289  and  _290
REMARK  119  A    between atoms: _289  and  _292
REMARK  120  A    between atoms: _292  and  _293
REMARK  121  A    between atoms: _296  and  _298
REMARK  122  A    between atoms: _298  and  _299
REMARK  123  A    between atoms: _298  and  _301
REMARK  124  A    between atoms: _301  and  _302
REMARK  125  A    between atoms: _305  and  _307
REMARK  126  A    between atoms: _307  and  _308
REMARK  127  A    between atoms: _310  and  _312
REMARK  128  A    between atoms: _312  and  _313
REMARK  129  A    between atoms: _316  and  _318
REMARK  130  A    between atoms: _318  and  _319
REMARK  131  A    between atoms: _318  and  _321
REMARK  132  A    between atoms: _321  and  _322
REMARK  133  A    between atoms: _325  and  _327
REMARK  134  A    between atoms: _327  and  _328
REMARK  135  A    between atoms: _327  and  _330
REMARK  136  A    between atoms: _330  and  _331
REMARK  137  A    between atoms: _334  and  _336
REMARK  138  A    between atoms: _336  and  _337
REMARK  139  A    between atoms: _336  and  _339
REMARK  140  A    between atoms: _339  and  _340
REMARK  141  A    between atoms: _343  and  _345
REMARK  142  A    between atoms: _345  and  _346
REMARK  143  A    between atoms: _345  and  _348
REMARK  144  A    between atoms: _351  and  _353
REMARK  145  A    between atoms: _353  and  _354
REMARK  146  A    between atoms: _353  and  _356
REMARK  147  A    between atoms: _356  and  _357
REMARK  148  A    between atoms: _357  and  _358
REMARK  149  A    between atoms: _358  and  _359
REMARK  150  A    between atoms: _359  and  _360
REMARK  151  A    between atoms: _364  and  _366
REMARK  152  A    between atoms: _366  and  _367
REMARK  153  A    between atoms: _366  and  _369
REMARK  154  A    between atoms: _369  and  _370
REMARK  155  A    between atoms: _370  and  _371
REMARK  156  A    between atoms: _373  and  _375
REMARK  157  A    between atoms: _375  and  _376
REMARK  158  A    between atoms: _375  and  _378
REMARK  159  A    between atoms: _378  and  _379
REMARK  160  A    between atoms: _382  and  _384
REMARK  161  A    between atoms: _384  and  _385
REMARK  162  A    between atoms: _387  and  _389
REMARK  163  A    between atoms: _389  and  _390
REMARK  164  A    between atoms: _392  and  _394
REMARK  165  A    between atoms: _394  and  _395
REMARK  166  A    between atoms: _394  and  _397
REMARK  167  A    between atoms: _397  and  _398
REMARK  168  A    between atoms: _401  and  _403
REMARK  169  A    between atoms: _403  and  _404
REMARK  170  A    between atoms: _406  and  _408
REMARK  171  A    between atoms: _408  and  _409
REMARK  172  A    between atoms: _411  and  _413
REMARK  173  A    between atoms: _413  and  _414
REMARK  174  A    between atoms: _413  and  _416
REMARK  175  A    between atoms: _416  and  _417
REMARK  176  A    between atoms: _423  and  _425
REMARK  177  A    between atoms: _425  and  _426
REMARK  178  A    between atoms: _425  and  _428
REMARK  179  A    between atoms: _428  and  _429
REMARK  180  A    between atoms: _432  and  _434
REMARK  181  A    between atoms: _434  and  _435
REMARK  182  A    between atoms: _434  and  _437
REMARK  183  A    between atoms: _440  and  _442
REMARK  184  A    between atoms: _442  and  _443
REMARK  185  A    between atoms: _442  and  _445
REMARK  186  A    between atoms: _445  and  _446
REMARK  187  A    between atoms: _450  and  _451
REMARK  188  A    between atoms: _456  and  _458
REMARK  189  A    between atoms: _458  and  _459
REMARK  190  A    between atoms: _458  and  _461
REMARK  191  A    between atoms: _461  and  _462
REMARK  192  A    between atoms: _466  and  _467
REMARK  193  A    between atoms: _472  and  _474
REMARK  194  A    between atoms: _474  and  _475
REMARK  195  A    between atoms: _474  and  _477
REMARK  196  A    between atoms: _480  and  _482
REMARK  197  A    between atoms: _482  and  _483
REMARK  198  A    between atoms: _482  and  _485
REMARK  199  A    between atoms: _485  and  _486
REMARK  200  A    between atoms: _491  and  _493
REMARK  201  A    between atoms: _493  and  _494
REMARK  202  A    between atoms: _493  and  _496
REMARK  203  A    between atoms: _496  and  _497
REMARK  204  A    between atoms: _500  and  _502
REMARK  205  A    between atoms: _502  and  _503
REMARK  206  A    between atoms: _502  and  _505
REMARK  207  A    between atoms: _505  and  _506
REMARK  208  A    between atoms: _509  and  _511
REMARK  209  A    between atoms: _511  and  _512
REMARK  210  A    between atoms: _514  and  _516
REMARK  211  A    between atoms: _516  and  _517
REMARK  212  A    between atoms: _516  and  _519
REMARK  213  A    between atoms: _519  and  _520
REMARK  214  A    between atoms: _520  and  _521
REMARK  215  A    between atoms: _521  and  _522
REMARK  216  A    between atoms: _531  and  _533
REMARK  217  A    between atoms: _533  and  _534
REMARK  218  A    between atoms: _533  and  _536
REMARK  219  A    between atoms: _536  and  _537
REMARK                            x       y       z     vdW  Elec       q    Type
REMARK                         _______ _______ _______ _____ _____    ______ ____
ROOT
ATOM      1  O   HOH     1      17.482  40.381  16.128  0.00  0.00    +0.000 OA
ENDROOT
TORSDOF 0
REMARK  Name = ../refined-set-2016/2qi3/2qi3_pocket.pdb
REMARK  219 active torsions:
REMARK  status: ('A' for Active; 'I' for Inactive)
REMARK    1  A    between atoms: _1  and  _3
REMARK    2  A    between atoms: _3  and  _4
REMARK    3  A    between atoms: _3  and  _6
REMARK    4  A    between atoms: _6  and  _7
REMARK    5  A    between atoms: _7  and  _8
REMARK    6  A    between atoms: _8  and  _9
REMARK    7  A    between atoms: _18  and  _20
REMARK    8  A    between atoms: _20  and  _21
REMARK    9  A    between atoms: _20  and  _23
REMARK   10  A    between atoms: _23  and  _24
REMARK   11  A    between atoms: _27  and  _29
REMARK   12  A    between atoms: _29  and  _30
REMARK   13  A    between atoms: _29  and  _32
REMARK   14  A    between atoms: _32  and  _33
REMARK   15  A    between atoms: _36  and  _38
REMARK   16  A    between atoms: _38  and  _39
REMARK   17  A    between atoms: _38  and  _41
REMARK   18  A    between atoms: _41  and  _42
REMARK   19  A    between atoms: _45  and  _47
REMARK   20  A    between atoms: _47  and  _48
REMARK   21  A    between atoms: _47  and  _50
REMARK   22  A    between atoms: _50  and  _51
REMARK   23  A    between atoms: _54  and  _56
REMARK   24  A    between atoms: _56  and  _57
REMARK   25  A    between atoms: _59  and  _61
REMARK   26  A    between atoms: _61  and  _62
REMARK   27  A    between atoms: _65  and  _67
REMARK   28  A    between atoms: _67  and  _68
REMARK   29  A    between atoms: _67  and  _70
REMARK   30  A    between atoms: _70  and  _71
REMARK   31  A    between atoms: _74  and  _76
REMARK   32  A    between atoms: _76  and  _77
REMARK   33  A    between atoms: _76  and  _79
REMARK   34  A    between atoms: _79  and  _80
REMARK   35  A    between atoms: _83  and  _85
REMARK   36  A    between atoms: _85  and  _86
REMARK   37  A    between atoms: _85  and  _88
REMARK   38  A    between atoms: _88  and  _89
REMARK   39  A    between atoms: _92  and  _94
REMARK   40  A    between atoms: _94  and  _95
REMARK   41  A    between atoms: _94  and  _97
REMARK   42  A    between atoms: _100  and  _102
REMARK   43  A    between atoms: _102  and  _103
REMARK   44  A    between atoms: _102  and  _105
REMARK   45  A    between atoms: _105  and  _106
REMARK   46  A    between atoms: _106  and  _107
REMARK   47  A    between atoms: _109  and  _111
REMARK   48  A    between atoms: _111  and  _112
REMARK   49  A    between atoms: _111  and  _114
REMARK   50  A    between atoms: _114  and  _115
REMARK   51  A    between atoms: _118  and  _120
REMARK   52  A    between atoms: _120  and  _121
REMARK   53  A    between atoms: _123  and  _125
REMARK   54  A    between atoms: _125  and  _126
REMARK   55  A    between atoms: _128  and  _130
REMARK   56  A    between atoms: _130  and  _131
REMARK   57  A    between atoms: _130  and  _133
REMARK   58  A    between atoms: _133  and  _134
REMARK   59  A    between atoms: _137  and  _139
REMARK   60  A    between atoms: _139  and  _140
REMARK   61  A    between atoms: _142  and  _144
REMARK   62  A    between atoms: _144  and  _145
REMARK   63  A    between atoms: _147  and  _149
REMARK   64  A    between atoms: _149  and  _150
REMARK   65  A    between atoms: _149  and  _152
REMARK   66  A    between atoms: _152  and  _153
REMARK   67  A    between atoms: _159  and  _161
REMARK   68  A    between atoms: _161  and  _162
REMARK   69  A    between atoms: _161  and  _164
REMARK   70  A    between atoms: _164  and  _165
REMARK   71  A    between atoms: _168  and  _170
REMARK   72  A    between atoms: _170  and  _171
REMARK   73  A    between atoms: _170  and  _173
REMARK   74  A    between atoms: _173  and  _174
REMARK   75  A    between atoms: _177  and  _179
REMARK   76  A    between atoms: _179  and  _180
REMARK   77  A    between atoms: _179  and  _182
REMARK   78  A    between atoms: _182  and  _183
REMARK   79  A    between atoms: _187  and  _188
REMARK   80  A    between atoms: _193  and  _195
REMARK   81  A    between atoms: _195  and  _196
REMARK   82  A    between atoms: _195  and  _198
REMARK   83  A    between atoms: _201  and  _203
REMARK   84  A    between atoms: _203  and  _204
REMARK   85  A    between atoms: _203  and  _206
REMARK   86  A    between atoms: _206  and  _207
REMARK   87  A    between atoms: _212  and  _214
REMARK   88  A    between atoms: _214  and  _215
REMARK   89  A    between atoms: _214  and  _217
REMARK   90  A    between atoms: _217  and  _218
REMARK   91  A    between atoms: _221  and  _223
REMARK   92  A    between atoms: _223  and  _224
REMARK   93  A    between atoms: _223  and  _226
REMARK   94  A    between atoms: _226  and  _227
REMARK   95  A    between atoms: _230  and  _232
REMARK   96  A    between atoms: _232  and  _233
REMARK   97  A    between atoms: _235  and  _237
REMARK   98  A    between atoms: _237  and  _238
REMARK   99  A    between atoms: _237  and  _240
REMARK  100  A    between atoms: _240  and  _241
REMARK  101  A    between atoms: _241  and  _242
REMARK  102  A    between atoms: _242  and  _243
REMARK  103  A    between atoms: _252  and  _254
REMARK  104  A    between atoms: _254  and  _255
REMARK  105  A    between atoms: _254  and  _257
REMARK  106  A    between atoms: _257  and  _258
REMARK  107  A    between atoms: _258  and  _259
REMARK  108  A    between atoms: _259  and  _260
REMARK  109  A    between atoms: _269  and  _271
REMARK  110  A    between atoms: _271  and  _272
REMARK  111  A    between atoms: _271  and  _274
REMARK  112  A    between atoms: _274  and  _275
REMARK  113  A    between atoms: _278  and  _280
REMARK  114  A    between atoms: _280  and  _281
REMARK  115  A    between atoms: _280  and  _283
REMARK  116  A    between atoms: _283  and  _284
REMARK  117  A    between atoms: _287  and  _289
REMARK  118  A    between atoms: _289  and  _290
REMARK  119  A    between atoms: _289  and  _292
REMARK  120  A    between atoms: _292  and  _293
REMARK  121  A    between atoms: _296  and  _298
REMARK  122  A    between atoms: _298  and  _299
REMARK  123  A    between atoms: _298  and  _301
REMARK  124  A    between atoms: _301  and  _302
REMARK  125  A    between atoms: _305  and  _307
REMARK  126  A    between atoms: _307  and  _308
REMARK  127  A    between atoms: _310  and  _312
REMARK  128  A    between atoms: _312  and  _313
REMARK  129  A    between atoms: _316  and  _318
REMARK  130  A    between atoms: _318  and  _319
REMARK  131  A    between atoms: _318  and  _321
REMARK  132  A    between atoms: _321  and  _322
REMARK  133  A    between atoms: _325  and  _327
REMARK  134  A    between atoms: _327  and  _328
REMARK  135  A    between atoms: _327  and  _330
REMARK  136  A    between atoms: _330  and  _331
REMARK  137  A    between atoms: _334  and  _336
REMARK  138  A    between atoms: _336  and  _337
REMARK  139  A    between atoms: _336  and  _339
REMARK  140  A    between atoms: _339  and  _340
REMARK  141  A    between atoms: _343  and  _345
REMARK  142  A    between atoms: _345  and  _346
REMARK  143  A    between atoms: _345  and  _348
REMARK  144  A    between atoms: _351  and  _353
REMARK  145  A    between atoms: _353  and  _354
REMARK  146  A    between atoms: _353  and  _356
REMARK  147  A    between atoms: _356  and  _357
REMARK  148  A    between atoms: _357  and  _358
REMARK  149  A    between atoms: _358  and  _359
REMARK  150  A    between atoms: _359  and  _360
REMARK  151  A    between atoms: _364  and  _366
REMARK  152  A    between atoms: _366  and  _367
REMARK  153  A    between atoms: _366  and  _369
REMARK  154  A    between atoms: _369  and  _370
REMARK  155  A    between atoms: _370  and  _371
REMARK  156  A    between atoms: _373  and  _375
REMARK  157  A    between atoms: _375  and  _376
REMARK  158  A    between atoms: _375  and  _378
REMARK  159  A    between atoms: _378  and  _379
REMARK  160  A    between atoms: _382  and  _384
REMARK  161  A    between atoms: _384  and  _385
REMARK  162  A    between atoms: _387  and  _389
REMARK  163  A    between atoms: _389  and  _390
REMARK  164  A    between atoms: _392  and  _394
REMARK  165  A    between atoms: _394  and  _395
REMARK  166  A    between atoms: _394  and  _397
REMARK  167  A    between atoms: _397  and  _398
REMARK  168  A    between atoms: _401  and  _403
REMARK  169  A    between atoms: _403  and  _404
REMARK  170  A    between atoms: _406  and  _408
REMARK  171  A    between atoms: _408  and  _409
REMARK  172  A    between atoms: _411  and  _413
REMARK  173  A    between atoms: _413  and  _414
REMARK  174  A    between atoms: _413  and  _416
REMARK  175  A    between atoms: _416  and  _417
REMARK  176  A    between atoms: _423  and  _425
REMARK  177  A    between atoms: _425  and  _426
REMARK  178  A    between atoms: _425  and  _428
REMARK  179  A    between atoms: _428  and  _429
REMARK  180  A    between atoms: _432  and  _434
REMARK  181  A    between atoms: _434  and  _435
REMARK  182  A    between atoms: _434  and  _437
REMARK  183  A    between atoms: _440  and  _442
REMARK  184  A    between atoms: _442  and  _443
REMARK  185  A    between atoms: _442  and  _445
REMARK  186  A    between atoms: _445  and  _446
REMARK  187  A    between atoms: _450  and  _451
REMARK  188  A    between atoms: _456  and  _458
REMARK  189  A    between atoms: _458  and  _459
REMARK  190  A    between atoms: _458  and  _461
REMARK  191  A    between atoms: _461  and  _462
REMARK  192  A    between atoms: _466  and  _467
REMARK  193  A    between atoms: _472  and  _474
REMARK  194  A    between atoms: _474  and  _475
REMARK  195  A    between atoms: _474  and  _477
REMARK  196  A    between atoms: _480  and  _482
REMARK  197  A    between atoms: _482  and  _483
REMARK  198  A    between atoms: _482  and  _485
REMARK  199  A    between atoms: _485  and  _486
REMARK  200  A    between atoms: _491  and  _493
REMARK  201  A    between atoms: _493  and  _494
REMARK  202  A    between atoms: _493  and  _496
REMARK  203  A    between atoms: _496  and  _497
REMARK  204  A    between atoms: _500  and  _502
REMARK  205  A    between atoms: _502  and  _503
REMARK  206  A    between atoms: _502  and  _505
REMARK  207  A    between atoms: _505  and  _506
REMARK  208  A    between atoms: _509  and  _511
REMARK  209  A    between atoms: _511  and  _512
REMARK  210  A    between atoms: _514  and  _516
REMARK  211  A    between atoms: _516  and  _517
REMARK  212  A    between atoms: _516  and  _519
REMARK  213  A    between atoms: _519  and  _520
REMARK  214  A    between atoms: _520  and  _521
REMARK  215  A    between atoms: _521  and  _522
REMARK  216  A    between atoms: _531  and  _533
REMARK  217  A    between atoms: _533  and  _534
REMARK  218  A    between atoms: _533  and  _536
REMARK  219  A    between atoms: _536  and  _537
REMARK                            x       y       z     vdW  Elec       q    Type
REMARK                         _______ _______ _______ _____ _____    ______ ____
ROOT
ATOM      1  O   HOH     1      17.414  22.779  10.991  0.00  0.00    +0.000 OA
ENDROOT
TORSDOF 0
REMARK  Name = ../refined-set-2016/2qi3/2qi3_pocket.pdb
REMARK  219 active torsions:
REMARK  status: ('A' for Active; 'I' for Inactive)
REMARK    1  A    between atoms: _1  and  _3
REMARK    2  A    between atoms: _3  and  _4
REMARK    3  A    between atoms: _3  and  _6
REMARK    4  A    between atoms: _6  and  _7
REMARK    5  A    between atoms: _7  and  _8
REMARK    6  A    between atoms: _8  and  _9
REMARK    7  A    between atoms: _18  and  _20
REMARK    8  A    between atoms: _20  and  _21
REMARK    9  A    between atoms: _20  and  _23
REMARK   10  A    between atoms: _23  and  _24
REMARK   11  A    between atoms: _27  and  _29
REMARK   12  A    between atoms: _29  and  _30
REMARK   13  A    between atoms: _29  and  _32
REMARK   14  A    between atoms: _32  and  _33
REMARK   15  A    between atoms: _36  and  _38
REMARK   16  A    between atoms: _38  and  _39
REMARK   17  A    between atoms: _38  and  _41
REMARK   18  A    between atoms: _41  and  _42
REMARK   19  A    between atoms: _45  and  _47
REMARK   20  A    between atoms: _47  and  _48
REMARK   21  A    between atoms: _47  and  _50
REMARK   22  A    between atoms: _50  and  _51
REMARK   23  A    between atoms: _54  and  _56
REMARK   24  A    between atoms: _56  and  _57
REMARK   25  A    between atoms: _59  and  _61
REMARK   26  A    between atoms: _61  and  _62
REMARK   27  A    between atoms: _65  and  _67
REMARK   28  A    between atoms: _67  and  _68
REMARK   29  A    between atoms: _67  and  _70
REMARK   30  A    between atoms: _70  and  _71
REMARK   31  A    between atoms: _74  and  _76
REMARK   32  A    between atoms: _76  and  _77
REMARK   33  A    between atoms: _76  and  _79
REMARK   34  A    between atoms: _79  and  _80
REMARK   35  A    between atoms: _83  and  _85
REMARK   36  A    between atoms: _85  and  _86
REMARK   37  A    between atoms: _85  and  _88
REMARK   38  A    between atoms: _88  and  _89
REMARK   39  A    between atoms: _92  and  _94
REMARK   40  A    between atoms: _94  and  _95
REMARK   41  A    between atoms: _94  and  _97
REMARK   42  A    between atoms: _100  and  _102
REMARK   43  A    between atoms: _102  and  _103
REMARK   44  A    between atoms: _102  and  _105
REMARK   45  A    between atoms: _105  and  _106
REMARK   46  A    between atoms: _106  and  _107
REMARK   47  A    between atoms: _109  and  _111
REMARK   48  A    between atoms: _111  and  _112
REMARK   49  A    between atoms: _111  and  _114
REMARK   50  A    between atoms: _114  and  _115
REMARK   51  A    between atoms: _118  and  _120
REMARK   52  A    between atoms: _120  and  _121
REMARK   53  A    between atoms: _123  and  _125
REMARK   54  A    between atoms: _125  and  _126
REMARK   55  A    between atoms: _128  and  _130
REMARK   56  A    between atoms: _130  and  _131
REMARK   57  A    between atoms: _130  and  _133
REMARK   58  A    between atoms: _133  and  _134
REMARK   59  A    between atoms: _137  and  _139
REMARK   60  A    between atoms: _139  and  _140
REMARK   61  A    between atoms: _142  and  _144
REMARK   62  A    between atoms: _144  and  _145
REMARK   63  A    between atoms: _147  and  _149
REMARK   64  A    between atoms: _149  and  _150
REMARK   65  A    between atoms: _149  and  _152
REMARK   66  A    between atoms: _152  and  _153
REMARK   67  A    between atoms: _159  and  _161
REMARK   68  A    between atoms: _161  and  _162
REMARK   69  A    between atoms: _161  and  _164
REMARK   70  A    between atoms: _164  and  _165
REMARK   71  A    between atoms: _168  and  _170
REMARK   72  A    between atoms: _170  and  _171
REMARK   73  A    between atoms: _170  and  _173
REMARK   74  A    between atoms: _173  and  _174
REMARK   75  A    between atoms: _177  and  _179
REMARK   76  A    between atoms: _179  and  _180
REMARK   77  A    between atoms: _179  and  _182
REMARK   78  A    between atoms: _182  and  _183
REMARK   79  A    between atoms: _187  and  _188
REMARK   80  A    between atoms: _193  and  _195
REMARK   81  A    between atoms: _195  and  _196
REMARK   82  A    between atoms: _195  and  _198
REMARK   83  A    between atoms: _201  and  _203
REMARK   84  A    between atoms: _203  and  _204
REMARK   85  A    between atoms: _203  and  _206
REMARK   86  A    between atoms: _206  and  _207
REMARK   87  A    between atoms: _212  and  _214
REMARK   88  A    between atoms: _214  and  _215
REMARK   89  A    between atoms: _214  and  _217
REMARK   90  A    between atoms: _217  and  _218
REMARK   91  A    between atoms: _221  and  _223
REMARK   92  A    between atoms: _223  and  _224
REMARK   93  A    between atoms: _223  and  _226
REMARK   94  A    between atoms: _226  and  _227
REMARK   95  A    between atoms: _230  and  _232
REMARK   96  A    between atoms: _232  and  _233
REMARK   97  A    between atoms: _235  and  _237
REMARK   98  A    between atoms: _237  and  _238
REMARK   99  A    between atoms: _237  and  _240
REMARK  100  A    between atoms: _240  and  _241
REMARK  101  A    between atoms: _241  and  _242
REMARK  102  A    between atoms: _242  and  _243
REMARK  103  A    between atoms: _252  and  _254
REMARK  104  A    between atoms: _254  and  _255
REMARK  105  A    between atoms: _254  and  _257
REMARK  106  A    between atoms: _257  and  _258
REMARK  107  A    between atoms: _258  and  _259
REMARK  108  A    between atoms: _259  and  _260
REMARK  109  A    between atoms: _269  and  _271
REMARK  110  A    between atoms: _271  and  _272
REMARK  111  A    between atoms: _271  and  _274
REMARK  112  A    between atoms: _274  and  _275
REMARK  113  A    between atoms: _278  and  _280
REMARK  114  A    between atoms: _280  and  _281
REMARK  115  A    between atoms: _280  and  _283
REMARK  116  A    between atoms: _283  and  _284
REMARK  117  A    between atoms: _287  and  _289
REMARK  118  A    between atoms: _289  and  _290
REMARK  119  A    between atoms: _289  and  _292
REMARK  120  A    between atoms: _292  and  _293
REMARK  121  A    between atoms: _296  and  _298
REMARK  122  A    between atoms: _298  and  _299
REMARK  123  A    between atoms: _298  and  _301
REMARK  124  A    between atoms: _301  and  _302
REMARK  125  A    between atoms: _305  and  _307
REMARK  126  A    between atoms: _307  and  _308
REMARK  127  A    between atoms: _310  and  _312
REMARK  128  A    between atoms: _312  and  _313
REMARK  129  A    between atoms: _316  and  _318
REMARK  130  A    between atoms: _318  and  _319
REMARK  131  A    between atoms: _318  and  _321
REMARK  132  A    between atoms: _321  and  _322
REMARK  133  A    between atoms: _325  and  _327
REMARK  134  A    between atoms: _327  and  _328
REMARK  135  A    between atoms: _327  and  _330
REMARK  136  A    between atoms: _330  and  _331
REMARK  137  A    between atoms: _334  and  _336
REMARK  138  A    between atoms: _336  and  _337
REMARK  139  A    between atoms: _336  and  _339
REMARK  140  A    between atoms: _339  and  _340
REMARK  141  A    between atoms: _343  and  _345
REMARK  142  A    between atoms: _345  and  _346
REMARK  143  A    between atoms: _345  and  _348
REMARK  144  A    between atoms: _351  and  _353
REMARK  145  A    between atoms: _353  and  _354
REMARK  146  A    between atoms: _353  and  _356
REMARK  147  A    between atoms: _356  and  _357
REMARK  148  A    between atoms: _357  and  _358
REMARK  149  A    between atoms: _358  and  _359
REMARK  150  A    between atoms: _359  and  _360
REMARK  151  A    between atoms: _364  and  _366
REMARK  152  A    between atoms: _366  and  _367
REMARK  153  A    between atoms: _366  and  _369
REMARK  154  A    between atoms: _369  and  _370
REMARK  155  A    between atoms: _370  and  _371
REMARK  156  A    between atoms: _373  and  _375
REMARK  157  A    between atoms: _375  and  _376
REMARK  158  A    between atoms: _375  and  _378
REMARK  159  A    between atoms: _378  and  _379
REMARK  160  A    between atoms: _382  and  _384
REMARK  161  A    between atoms: _384  and  _385
REMARK  162  A    between atoms: _387  and  _389
REMARK  163  A    between atoms: _389  and  _390
REMARK  164  A    between atoms: _392  and  _394
REMARK  165  A    between atoms: _394  and  _395
REMARK  166  A    between atoms: _394  and  _397
REMARK  167  A    between atoms: _397  and  _398
REMARK  168  A    between atoms: _401  and  _403
REMARK  169  A    between atoms: _403  and  _404
REMARK  170  A    between atoms: _406  and  _408
REMARK  171  A    between atoms: _408  and  _409
REMARK  172  A    between atoms: _411  and  _413
REMARK  173  A    between atoms: _413  and  _414
REMARK  174  A    between atoms: _413  and  _416
REMARK  175  A    between atoms: _416  and  _417
REMARK  176  A    between atoms: _423  and  _425
REMARK  177  A    between atoms: _425  and  _426
REMARK  178  A    between atoms: _425  and  _428
REMARK  179  A    between atoms: _428  and  _429
REMARK  180  A    between atoms: _432  and  _434
REMARK  181  A    between atoms: _434  and  _435
REMARK  182  A    between atoms: _434  and  _437
REMARK  183  A    between atoms: _440  and  _442
REMARK  184  A    between atoms: _442  and  _443
REMARK  185  A    between atoms: _442  and  _445
REMARK  186  A    between atoms: _445  and  _446
REMARK  187  A    between atoms: _450  and  _451
REMARK  188  A    between atoms: _456  and  _458
REMARK  189  A    between atoms: _458  and  _459
REMARK  190  A    between atoms: _458  and  _461
REMARK  191  A    between atoms: _461  and  _462
REMARK  192  A    between atoms: _466  and  _467
REMARK  193  A    between atoms: _472  and  _474
REMARK  194  A    between atoms: _474  and  _475
REMARK  195  A    between atoms: _474  and  _477
REMARK  196  A    between atoms: _480  and  _482
REMARK  197  A    between atoms: _482  and  _483
REMARK  198  A    between atoms: _482  and  _485
REMARK  199  A    between atoms: _485  and  _486
REMARK  200  A    between atoms: _491  and  _493
REMARK  201  A    between atoms: _493  and  _494
REMARK  202  A    between atoms: _493  and  _496
REMARK  203  A    between atoms: _496  and  _497
REMARK  204  A    between atoms: _500  and  _502
REMARK  205  A    between atoms: _502  and  _503
REMARK  206  A    between atoms: _502  and  _505
REMARK  207  A    between atoms: _505  and  _506
REMARK  208  A    between atoms: _509  and  _511
REMARK  209  A    between atoms: _511  and  _512
REMARK  210  A    between atoms: _514  and  _516
REMARK  211  A    between atoms: _516  and  _517
REMARK  212  A    between atoms: _516  and  _519
REMARK  213  A    between atoms: _519  and  _520
REMARK  214  A    between atoms: _520  and  _521
REMARK  215  A    between atoms: _521  and  _522
REMARK  216  A    between atoms: _531  and  _533
REMARK  217  A    between atoms: _533  and  _534
REMARK  218  A    between atoms: _533  and  _536
REMARK  219  A    between atoms: _536  and  _537
REMARK                            x       y       z     vdW  Elec       q    Type
REMARK                         _______ _______ _______ _____ _____    ______ ____
ROOT
ATOM      1  O   HOH     1      19.913  32.243  11.318  0.00  0.00    +0.000 OA
ENDROOT
TORSDOF 0
REMARK  Name = ../refined-set-2016/2qi3/2qi3_pocket.pdb
REMARK  219 active torsions:
REMARK  status: ('A' for Active; 'I' for Inactive)
REMARK    1  A    between atoms: _1  and  _3
REMARK    2  A    between atoms: _3  and  _4
REMARK    3  A    between atoms: _3  and  _6
REMARK    4  A    between atoms: _6  and  _7
REMARK    5  A    between atoms: _7  and  _8
REMARK    6  A    between atoms: _8  and  _9
REMARK    7  A    between atoms: _18  and  _20
REMARK    8  A    between atoms: _20  and  _21
REMARK    9  A    between atoms: _20  and  _23
REMARK   10  A    between atoms: _23  and  _24
REMARK   11  A    between atoms: _27  and  _29
REMARK   12  A    between atoms: _29  and  _30
REMARK   13  A    between atoms: _29  and  _32
REMARK   14  A    between atoms: _32  and  _33
REMARK   15  A    between atoms: _36  and  _38
REMARK   16  A    between atoms: _38  and  _39
REMARK   17  A    between atoms: _38  and  _41
REMARK   18  A    between atoms: _41  and  _42
REMARK   19  A    between atoms: _45  and  _47
REMARK   20  A    between atoms: _47  and  _48
REMARK   21  A    between atoms: _47  and  _50
REMARK   22  A    between atoms: _50  and  _51
REMARK   23  A    between atoms: _54  and  _56
REMARK   24  A    between atoms: _56  and  _57
REMARK   25  A    between atoms: _59  and  _61
REMARK   26  A    between atoms: _61  and  _62
REMARK   27  A    between atoms: _65  and  _67
REMARK   28  A    between atoms: _67  and  _68
REMARK   29  A    between atoms: _67  and  _70
REMARK   30  A    between atoms: _70  and  _71
REMARK   31  A    between atoms: _74  and  _76
REMARK   32  A    between atoms: _76  and  _77
REMARK   33  A    between atoms: _76  and  _79
REMARK   34  A    between atoms: _79  and  _80
REMARK   35  A    between atoms: _83  and  _85
REMARK   36  A    between atoms: _85  and  _86
REMARK   37  A    between atoms: _85  and  _88
REMARK   38  A    between atoms: _88  and  _89
REMARK   39  A    between atoms: _92  and  _94
REMARK   40  A    between atoms: _94  and  _95
REMARK   41  A    between atoms: _94  and  _97
REMARK   42  A    between atoms: _100  and  _102
REMARK   43  A    between atoms: _102  and  _103
REMARK   44  A    between atoms: _102  and  _105
REMARK   45  A    between atoms: _105  and  _106
REMARK   46  A    between atoms: _106  and  _107
REMARK   47  A    between atoms: _109  and  _111
REMARK   48  A    between atoms: _111  and  _112
REMARK   49  A    between atoms: _111  and  _114
REMARK   50  A    between atoms: _114  and  _115
REMARK   51  A    between atoms: _118  and  _120
REMARK   52  A    between atoms: _120  and  _121
REMARK   53  A    between atoms: _123  and  _125
REMARK   54  A    between atoms: _125  and  _126
REMARK   55  A    between atoms: _128  and  _130
REMARK   56  A    between atoms: _130  and  _131
REMARK   57  A    between atoms: _130  and  _133
REMARK   58  A    between atoms: _133  and  _134
REMARK   59  A    between atoms: _137  and  _139
REMARK   60  A    between atoms: _139  and  _140
REMARK   61  A    between atoms: _142  and  _144
REMARK   62  A    between atoms: _144  and  _145
REMARK   63  A    between atoms: _147  and  _149
REMARK   64  A    between atoms: _149  and  _150
REMARK   65  A    between atoms: _149  and  _152
REMARK   66  A    between atoms: _152  and  _153
REMARK   67  A    between atoms: _159  and  _161
REMARK   68  A    between atoms: _161  and  _162
REMARK   69  A    between atoms: _161  and  _164
REMARK   70  A    between atoms: _164  and  _165
REMARK   71  A    between atoms: _168  and  _170
REMARK   72  A    between atoms: _170  and  _171
REMARK   73  A    between atoms: _170  and  _173
REMARK   74  A    between atoms: _173  and  _174
REMARK   75  A    between atoms: _177  and  _179
REMARK   76  A    between atoms: _179  and  _180
REMARK   77  A    between atoms: _179  and  _182
REMARK   78  A    between atoms: _182  and  _183
REMARK   79  A    between atoms: _187  and  _188
REMARK   80  A    between atoms: _193  and  _195
REMARK   81  A    between atoms: _195  and  _196
REMARK   82  A    between atoms: _195  and  _198
REMARK   83  A    between atoms: _201  and  _203
REMARK   84  A    between atoms: _203  and  _204
REMARK   85  A    between atoms: _203  and  _206
REMARK   86  A    between atoms: _206  and  _207
REMARK   87  A    between atoms: _212  and  _214
REMARK   88  A    between atoms: _214  and  _215
REMARK   89  A    between atoms: _214  and  _217
REMARK   90  A    between atoms: _217  and  _218
REMARK   91  A    between atoms: _221  and  _223
REMARK   92  A    between atoms: _223  and  _224
REMARK   93  A    between atoms: _223  and  _226
REMARK   94  A    between atoms: _226  and  _227
REMARK   95  A    between atoms: _230  and  _232
REMARK   96  A    between atoms: _232  and  _233
REMARK   97  A    between atoms: _235  and  _237
REMARK   98  A    between atoms: _237  and  _238
REMARK   99  A    between atoms: _237  and  _240
REMARK  100  A    between atoms: _240  and  _241
REMARK  101  A    between atoms: _241  and  _242
REMARK  102  A    between atoms: _242  and  _243
REMARK  103  A    between atoms: _252  and  _254
REMARK  104  A    between atoms: _254  and  _255
REMARK  105  A    between atoms: _254  and  _257
REMARK  106  A    between atoms: _257  and  _258
REMARK  107  A    between atoms: _258  and  _259
REMARK  108  A    between atoms: _259  and  _260
REMARK  109  A    between atoms: _269  and  _271
REMARK  110  A    between atoms: _271  and  _272
REMARK  111  A    between atoms: _271  and  _274
REMARK  112  A    between atoms: _274  and  _275
REMARK  113  A    between atoms: _278  and  _280
REMARK  114  A    between atoms: _280  and  _281
REMARK  115  A    between atoms: _280  and  _283
REMARK  116  A    between atoms: _283  and  _284
REMARK  117  A    between atoms: _287  and  _289
REMARK  118  A    between atoms: _289  and  _290
REMARK  119  A    between atoms: _289  and  _292
REMARK  120  A    between atoms: _292  and  _293
REMARK  121  A    between atoms: _296  and  _298
REMARK  122  A    between atoms: _298  and  _299
REMARK  123  A    between atoms: _298  and  _301
REMARK  124  A    between atoms: _301  and  _302
REMARK  125  A    between atoms: _305  and  _307
REMARK  126  A    between atoms: _307  and  _308
REMARK  127  A    between atoms: _310  and  _312
REMARK  128  A    between atoms: _312  and  _313
REMARK  129  A    between atoms: _316  and  _318
REMARK  130  A    between atoms: _318  and  _319
REMARK  131  A    between atoms: _318  and  _321
REMARK  132  A    between atoms: _321  and  _322
REMARK  133  A    between atoms: _325  and  _327
REMARK  134  A    between atoms: _327  and  _328
REMARK  135  A    between atoms: _327  and  _330
REMARK  136  A    between atoms: _330  and  _331
REMARK  137  A    between atoms: _334  and  _336
REMARK  138  A    between atoms: _336  and  _337
REMARK  139  A    between atoms: _336  and  _339
REMARK  140  A    between atoms: _339  and  _340
REMARK  141  A    between atoms: _343  and  _345
REMARK  142  A    between atoms: _345  and  _346
REMARK  143  A    between atoms: _345  and  _348
REMARK  144  A    between atoms: _351  and  _353
REMARK  145  A    between atoms: _353  and  _354
REMARK  146  A    between atoms: _353  and  _356
REMARK  147  A    between atoms: _356  and  _357
REMARK  148  A    between atoms: _357  and  _358
REMARK  149  A    between atoms: _358  and  _359
REMARK  150  A    between atoms: _359  and  _360
REMARK  151  A    between atoms: _364  and  _366
REMARK  152  A    between atoms: _366  and  _367
REMARK  153  A    between atoms: _366  and  _369
REMARK  154  A    between atoms: _369  and  _370
REMARK  155  A    between atoms: _370  and  _371
REMARK  156  A    between atoms: _373  and  _375
REMARK  157  A    between atoms: _375  and  _376
REMARK  158  A    between atoms: _375  and  _378
REMARK  159  A    between atoms: _378  and  _379
REMARK  160  A    between atoms: _382  and  _384
REMARK  161  A    between atoms: _384  and  _385
REMARK  162  A    between atoms: _387  and  _389
REMARK  163  A    between atoms: _389  and  _390
REMARK  164  A    between atoms: _392  and  _394
REMARK  165  A    between atoms: _394  and  _395
REMARK  166  A    between atoms: _394  and  _397
REMARK  167  A    between atoms: _397  and  _398
REMARK  168  A    between atoms: _401  and  _403
REMARK  169  A    between atoms: _403  and  _404
REMARK  170  A    between atoms: _406  and  _408
REMARK  171  A    between atoms: _408  and  _409
REMARK  172  A    between atoms: _411  and  _413
REMARK  173  A    between atoms: _413  and  _414
REMARK  174  A    between atoms: _413  and  _416
REMARK  175  A    between atoms: _416  and  _417
REMARK  176  A    between atoms: _423  and  _425
REMARK  177  A    between atoms: _425  and  _426
REMARK  178  A    between atoms: _425  and  _428
REMARK  179  A    between atoms: _428  and  _429
REMARK  180  A    between atoms: _432  and  _434
REMARK  181  A    between atoms: _434  and  _435
REMARK  182  A    between atoms: _434  and  _437
REMARK  183  A    between atoms: _440  and  _442
REMARK  184  A    between atoms: _442  and  _443
REMARK  185  A    between atoms: _442  and  _445
REMARK  186  A    between atoms: _445  and  _446
REMARK  187  A    between atoms: _450  and  _451
REMARK  188  A    between atoms: _456  and  _458
REMARK  189  A    between atoms: _458  and  _459
REMARK  190  A    between atoms: _458  and  _461
REMARK  191  A    between atoms: _461  and  _462
REMARK  192  A    between atoms: _466  and  _467
REMARK  193  A    between atoms: _472  and  _474
REMARK  194  A    between atoms: _474  and  _475
REMARK  195  A    between atoms: _474  and  _477
REMARK  196  A    between atoms: _480  and  _482
REMARK  197  A    between atoms: _482  and  _483
REMARK  198  A    between atoms: _482  and  _485
REMARK  199  A    between atoms: _485  and  _486
REMARK  200  A    between atoms: _491  and  _493
REMARK  201  A    between atoms: _493  and  _494
REMARK  202  A    between atoms: _493  and  _496
REMARK  203  A    between atoms: _496  and  _497
REMARK  204  A    between atoms: _500  and  _502
REMARK  205  A    between atoms: _502  and  _503
REMARK  206  A    between atoms: _502  and  _505
REMARK  207  A    between atoms: _505  and  _506
REMARK  208  A    between atoms: _509  and  _511
REMARK  209  A    between atoms: _511  and  _512
REMARK  210  A    between atoms: _514  and  _516
REMARK  211  A    between atoms: _516  and  _517
REMARK  212  A    between atoms: _516  and  _519
REMARK  213  A    between atoms: _519  and  _520
REMARK  214  A    between atoms: _520  and  _521
REMARK  215  A    between atoms: _521  and  _522
REMARK  216  A    between atoms: _531  and  _533
REMARK  217  A    between atoms: _533  and  _534
REMARK  218  A    between atoms: _533  and  _536
REMARK  219  A    between atoms: _536  and  _537
REMARK                            x       y       z     vdW  Elec       q    Type
REMARK                         _______ _______ _______ _____ _____    ______ ____
ROOT
ATOM      1  O   HOH     1       8.987  34.680  20.999  0.00  0.00    +0.000 OA
ENDROOT
TORSDOF 0
REMARK  Name = ../refined-set-2016/2qi3/2qi3_pocket.pdb
REMARK  219 active torsions:
REMARK  status: ('A' for Active; 'I' for Inactive)
REMARK    1  A    between atoms: _1  and  _3
REMARK    2  A    between atoms: _3  and  _4
REMARK    3  A    between atoms: _3  and  _6
REMARK    4  A    between atoms: _6  and  _7
REMARK    5  A    between atoms: _7  and  _8
REMARK    6  A    between atoms: _8  and  _9
REMARK    7  A    between atoms: _18  and  _20
REMARK    8  A    between atoms: _20  and  _21
REMARK    9  A    between atoms: _20  and  _23
REMARK   10  A    between atoms: _23  and  _24
REMARK   11  A    between atoms: _27  and  _29
REMARK   12  A    between atoms: _29  and  _30
REMARK   13  A    between atoms: _29  and  _32
REMARK   14  A    between atoms: _32  and  _33
REMARK   15  A    between atoms: _36  and  _38
REMARK   16  A    between atoms: _38  and  _39
REMARK   17  A    between atoms: _38  and  _41
REMARK   18  A    between atoms: _41  and  _42
REMARK   19  A    between atoms: _45  and  _47
REMARK   20  A    between atoms: _47  and  _48
REMARK   21  A    between atoms: _47  and  _50
REMARK   22  A    between atoms: _50  and  _51
REMARK   23  A    between atoms: _54  and  _56
REMARK   24  A    between atoms: _56  and  _57
REMARK   25  A    between atoms: _59  and  _61
REMARK   26  A    between atoms: _61  and  _62
REMARK   27  A    between atoms: _65  and  _67
REMARK   28  A    between atoms: _67  and  _68
REMARK   29  A    between atoms: _67  and  _70
REMARK   30  A    between atoms: _70  and  _71
REMARK   31  A    between atoms: _74  and  _76
REMARK   32  A    between atoms: _76  and  _77
REMARK   33  A    between atoms: _76  and  _79
REMARK   34  A    between atoms: _79  and  _80
REMARK   35  A    between atoms: _83  and  _85
REMARK   36  A    between atoms: _85  and  _86
REMARK   37  A    between atoms: _85  and  _88
REMARK   38  A    between atoms: _88  and  _89
REMARK   39  A    between atoms: _92  and  _94
REMARK   40  A    between atoms: _94  and  _95
REMARK   41  A    between atoms: _94  and  _97
REMARK   42  A    between atoms: _100  and  _102
REMARK   43  A    between atoms: _102  and  _103
REMARK   44  A    between atoms: _102  and  _105
REMARK   45  A    between atoms: _105  and  _106
REMARK   46  A    between atoms: _106  and  _107
REMARK   47  A    between atoms: _109  and  _111
REMARK   48  A    between atoms: _111  and  _112
REMARK   49  A    between atoms: _111  and  _114
REMARK   50  A    between atoms: _114  and  _115
REMARK   51  A    between atoms: _118  and  _120
REMARK   52  A    between atoms: _120  and  _121
REMARK   53  A    between atoms: _123  and  _125
REMARK   54  A    between atoms: _125  and  _126
REMARK   55  A    between atoms: _128  and  _130
REMARK   56  A    between atoms: _130  and  _131
REMARK   57  A    between atoms: _130  and  _133
REMARK   58  A    between atoms: _133  and  _134
REMARK   59  A    between atoms: _137  and  _139
REMARK   60  A    between atoms: _139  and  _140
REMARK   61  A    between atoms: _142  and  _144
REMARK   62  A    between atoms: _144  and  _145
REMARK   63  A    between atoms: _147  and  _149
REMARK   64  A    between atoms: _149  and  _150
REMARK   65  A    between atoms: _149  and  _152
REMARK   66  A    between atoms: _152  and  _153
REMARK   67  A    between atoms: _159  and  _161
REMARK   68  A    between atoms: _161  and  _162
REMARK   69  A    between atoms: _161  and  _164
REMARK   70  A    between atoms: _164  and  _165
REMARK   71  A    between atoms: _168  and  _170
REMARK   72  A    between atoms: _170  and  _171
REMARK   73  A    between atoms: _170  and  _173
REMARK   74  A    between atoms: _173  and  _174
REMARK   75  A    between atoms: _177  and  _179
REMARK   76  A    between atoms: _179  and  _180
REMARK   77  A    between atoms: _179  and  _182
REMARK   78  A    between atoms: _182  and  _183
REMARK   79  A    between atoms: _187  and  _188
REMARK   80  A    between atoms: _193  and  _195
REMARK   81  A    between atoms: _195  and  _196
REMARK   82  A    between atoms: _195  and  _198
REMARK   83  A    between atoms: _201  and  _203
REMARK   84  A    between atoms: _203  and  _204
REMARK   85  A    between atoms: _203  and  _206
REMARK   86  A    between atoms: _206  and  _207
REMARK   87  A    between atoms: _212  and  _214
REMARK   88  A    between atoms: _214  and  _215
REMARK   89  A    between atoms: _214  and  _217
REMARK   90  A    between atoms: _217  and  _218
REMARK   91  A    between atoms: _221  and  _223
REMARK   92  A    between atoms: _223  and  _224
REMARK   93  A    between atoms: _223  and  _226
REMARK   94  A    between atoms: _226  and  _227
REMARK   95  A    between atoms: _230  and  _232
REMARK   96  A    between atoms: _232  and  _233
REMARK   97  A    between atoms: _235  and  _237
REMARK   98  A    between atoms: _237  and  _238
REMARK   99  A    between atoms: _237  and  _240
REMARK  100  A    between atoms: _240  and  _241
REMARK  101  A    between atoms: _241  and  _242
REMARK  102  A    between atoms: _242  and  _243
REMARK  103  A    between atoms: _252  and  _254
REMARK  104  A    between atoms: _254  and  _255
REMARK  105  A    between atoms: _254  and  _257
REMARK  106  A    between atoms: _257  and  _258
REMARK  107  A    between atoms: _258  and  _259
REMARK  108  A    between atoms: _259  and  _260
REMARK  109  A    between atoms: _269  and  _271
REMARK  110  A    between atoms: _271  and  _272
REMARK  111  A    between atoms: _271  and  _274
REMARK  112  A    between atoms: _274  and  _275
REMARK  113  A    between atoms: _278  and  _280
REMARK  114  A    between atoms: _280  and  _281
REMARK  115  A    between atoms: _280  and  _283
REMARK  116  A    between atoms: _283  and  _284
REMARK  117  A    between atoms: _287  and  _289
REMARK  118  A    between atoms: _289  and  _290
REMARK  119  A    between atoms: _289  and  _292
REMARK  120  A    between atoms: _292  and  _293
REMARK  121  A    between atoms: _296  and  _298
REMARK  122  A    between atoms: _298  and  _299
REMARK  123  A    between atoms: _298  and  _301
REMARK  124  A    between atoms: _301  and  _302
REMARK  125  A    between atoms: _305  and  _307
REMARK  126  A    between atoms: _307  and  _308
REMARK  127  A    between atoms: _310  and  _312
REMARK  128  A    between atoms: _312  and  _313
REMARK  129  A    between atoms: _316  and  _318
REMARK  130  A    between atoms: _318  and  _319
REMARK  131  A    between atoms: _318  and  _321
REMARK  132  A    between atoms: _321  and  _322
REMARK  133  A    between atoms: _325  and  _327
REMARK  134  A    between atoms: _327  and  _328
REMARK  135  A    between atoms: _327  and  _330
REMARK  136  A    between atoms: _330  and  _331
REMARK  137  A    between atoms: _334  and  _336
REMARK  138  A    between atoms: _336  and  _337
REMARK  139  A    between atoms: _336  and  _339
REMARK  140  A    between atoms: _339  and  _340
REMARK  141  A    between atoms: _343  and  _345
REMARK  142  A    between atoms: _345  and  _346
REMARK  143  A    between atoms: _345  and  _348
REMARK  144  A    between atoms: _351  and  _353
REMARK  145  A    between atoms: _353  and  _354
REMARK  146  A    between atoms: _353  and  _356
REMARK  147  A    between atoms: _356  and  _357
REMARK  148  A    between atoms: _357  and  _358
REMARK  149  A    between atoms: _358  and  _359
REMARK  150  A    between atoms: _359  and  _360
REMARK  151  A    between atoms: _364  and  _366
REMARK  152  A    between atoms: _366  and  _367
REMARK  153  A    between atoms: _366  and  _369
REMARK  154  A    between atoms: _369  and  _370
REMARK  155  A    between atoms: _370  and  _371
REMARK  156  A    between atoms: _373  and  _375
REMARK  157  A    between atoms: _375  and  _376
REMARK  158  A    between atoms: _375  and  _378
REMARK  159  A    between atoms: _378  and  _379
REMARK  160  A    between atoms: _382  and  _384
REMARK  161  A    between atoms: _384  and  _385
REMARK  162  A    between atoms: _387  and  _389
REMARK  163  A    between atoms: _389  and  _390
REMARK  164  A    between atoms: _392  and  _394
REMARK  165  A    between atoms: _394  and  _395
REMARK  166  A    between atoms: _394  and  _397
REMARK  167  A    between atoms: _397  and  _398
REMARK  168  A    between atoms: _401  and  _403
REMARK  169  A    between atoms: _403  and  _404
REMARK  170  A    between atoms: _406  and  _408
REMARK  171  A    between atoms: _408  and  _409
REMARK  172  A    between atoms: _411  and  _413
REMARK  173  A    between atoms: _413  and  _414
REMARK  174  A    between atoms: _413  and  _416
REMARK  175  A    between atoms: _416  and  _417
REMARK  176  A    between atoms: _423  and  _425
REMARK  177  A    between atoms: _425  and  _426
REMARK  178  A    between atoms: _425  and  _428
REMARK  179  A    between atoms: _428  and  _429
REMARK  180  A    between atoms: _432  and  _434
REMARK  181  A    between atoms: _434  and  _435
REMARK  182  A    between atoms: _434  and  _437
REMARK  183  A    between atoms: _440  and  _442
REMARK  184  A    between atoms: _442  and  _443
REMARK  185  A    between atoms: _442  and  _445
REMARK  186  A    between atoms: _445  and  _446
REMARK  187  A    between atoms: _450  and  _451
REMARK  188  A    between atoms: _456  and  _458
REMARK  189  A    between atoms: _458  and  _459
REMARK  190  A    between atoms: _458  and  _461
REMARK  191  A    between atoms: _461  and  _462
REMARK  192  A    between atoms: _466  and  _467
REMARK  193  A    between atoms: _472  and  _474
REMARK  194  A    between atoms: _474  and  _475
REMARK  195  A    between atoms: _474  and  _477
REMARK  196  A    between atoms: _480  and  _482
REMARK  197  A    between atoms: _482  and  _483
REMARK  198  A    between atoms: _482  and  _485
REMARK  199  A    between atoms: _485  and  _486
REMARK  200  A    between atoms: _491  and  _493
REMARK  201  A    between atoms: _493  and  _494
REMARK  202  A    between atoms: _493  and  _496
REMARK  203  A    between atoms: _496  and  _497
REMARK  204  A    between atoms: _500  and  _502
REMARK  205  A    between atoms: _502  and  _503
REMARK  206  A    between atoms: _502  and  _505
REMARK  207  A    between atoms: _505  and  _506
REMARK  208  A    between atoms: _509  and  _511
REMARK  209  A    between atoms: _511  and  _512
REMARK  210  A    between atoms: _514  and  _516
REMARK  211  A    between atoms: _516  and  _517
REMARK  212  A    between atoms: _516  and  _519
REMARK  213  A    between atoms: _519  and  _520
REMARK  214  A    between atoms: _520  and  _521
REMARK  215  A    between atoms: _521  and  _522
REMARK  216  A    between atoms: _531  and  _533
REMARK  217  A    between atoms: _533  and  _534
REMARK  218  A    between atoms: _533  and  _536
REMARK  219  A    between atoms: _536  and  _537
REMARK                            x       y       z     vdW  Elec       q    Type
REMARK                         _______ _______ _______ _____ _____    ______ ____
ROOT
ATOM      1  O   HOH     1      17.764  23.398   8.307  0.00  0.00    +0.000 OA
ENDROOT
TORSDOF 0
REMARK  Name = ../refined-set-2016/2qi3/2qi3_pocket.pdb
REMARK  219 active torsions:
REMARK  status: ('A' for Active; 'I' for Inactive)
REMARK    1  A    between atoms: _1  and  _3
REMARK    2  A    between atoms: _3  and  _4
REMARK    3  A    between atoms: _3  and  _6
REMARK    4  A    between atoms: _6  and  _7
REMARK    5  A    between atoms: _7  and  _8
REMARK    6  A    between atoms: _8  and  _9
REMARK    7  A    between atoms: _18  and  _20
REMARK    8  A    between atoms: _20  and  _21
REMARK    9  A    between atoms: _20  and  _23
REMARK   10  A    between atoms: _23  and  _24
REMARK   11  A    between atoms: _27  and  _29
REMARK   12  A    between atoms: _29  and  _30
REMARK   13  A    between atoms: _29  and  _32
REMARK   14  A    between atoms: _32  and  _33
REMARK   15  A    between atoms: _36  and  _38
REMARK   16  A    between atoms: _38  and  _39
REMARK   17  A    between atoms: _38  and  _41
REMARK   18  A    between atoms: _41  and  _42
REMARK   19  A    between atoms: _45  and  _47
REMARK   20  A    between atoms: _47  and  _48
REMARK   21  A    between atoms: _47  and  _50
REMARK   22  A    between atoms: _50  and  _51
REMARK   23  A    between atoms: _54  and  _56
REMARK   24  A    between atoms: _56  and  _57
REMARK   25  A    between atoms: _59  and  _61
REMARK   26  A    between atoms: _61  and  _62
REMARK   27  A    between atoms: _65  and  _67
REMARK   28  A    between atoms: _67  and  _68
REMARK   29  A    between atoms: _67  and  _70
REMARK   30  A    between atoms: _70  and  _71
REMARK   31  A    between atoms: _74  and  _76
REMARK   32  A    between atoms: _76  and  _77
REMARK   33  A    between atoms: _76  and  _79
REMARK   34  A    between atoms: _79  and  _80
REMARK   35  A    between atoms: _83  and  _85
REMARK   36  A    between atoms: _85  and  _86
REMARK   37  A    between atoms: _85  and  _88
REMARK   38  A    between atoms: _88  and  _89
REMARK   39  A    between atoms: _92  and  _94
REMARK   40  A    between atoms: _94  and  _95
REMARK   41  A    between atoms: _94  and  _97
REMARK   42  A    between atoms: _100  and  _102
REMARK   43  A    between atoms: _102  and  _103
REMARK   44  A    between atoms: _102  and  _105
REMARK   45  A    between atoms: _105  and  _106
REMARK   46  A    between atoms: _106  and  _107
REMARK   47  A    between atoms: _109  and  _111
REMARK   48  A    between atoms: _111  and  _112
REMARK   49  A    between atoms: _111  and  _114
REMARK   50  A    between atoms: _114  and  _115
REMARK   51  A    between atoms: _118  and  _120
REMARK   52  A    between atoms: _120  and  _121
REMARK   53  A    between atoms: _123  and  _125
REMARK   54  A    between atoms: _125  and  _126
REMARK   55  A    between atoms: _128  and  _130
REMARK   56  A    between atoms: _130  and  _131
REMARK   57  A    between atoms: _130  and  _133
REMARK   58  A    between atoms: _133  and  _134
REMARK   59  A    between atoms: _137  and  _139
REMARK   60  A    between atoms: _139  and  _140
REMARK   61  A    between atoms: _142  and  _144
REMARK   62  A    between atoms: _144  and  _145
REMARK   63  A    between atoms: _147  and  _149
REMARK   64  A    between atoms: _149  and  _150
REMARK   65  A    between atoms: _149  and  _152
REMARK   66  A    between atoms: _152  and  _153
REMARK   67  A    between atoms: _159  and  _161
REMARK   68  A    between atoms: _161  and  _162
REMARK   69  A    between atoms: _161  and  _164
REMARK   70  A    between atoms: _164  and  _165
REMARK   71  A    between atoms: _168  and  _170
REMARK   72  A    between atoms: _170  and  _171
REMARK   73  A    between atoms: _170  and  _173
REMARK   74  A    between atoms: _173  and  _174
REMARK   75  A    between atoms: _177  and  _179
REMARK   76  A    between atoms: _179  and  _180
REMARK   77  A    between atoms: _179  and  _182
REMARK   78  A    between atoms: _182  and  _183
REMARK   79  A    between atoms: _187  and  _188
REMARK   80  A    between atoms: _193  and  _195
REMARK   81  A    between atoms: _195  and  _196
REMARK   82  A    between atoms: _195  and  _198
REMARK   83  A    between atoms: _201  and  _203
REMARK   84  A    between atoms: _203  and  _204
REMARK   85  A    between atoms: _203  and  _206
REMARK   86  A    between atoms: _206  and  _207
REMARK   87  A    between atoms: _212  and  _214
REMARK   88  A    between atoms: _214  and  _215
REMARK   89  A    between atoms: _214  and  _217
REMARK   90  A    between atoms: _217  and  _218
REMARK   91  A    between atoms: _221  and  _223
REMARK   92  A    between atoms: _223  and  _224
REMARK   93  A    between atoms: _223  and  _226
REMARK   94  A    between atoms: _226  and  _227
REMARK   95  A    between atoms: _230  and  _232
REMARK   96  A    between atoms: _232  and  _233
REMARK   97  A    between atoms: _235  and  _237
REMARK   98  A    between atoms: _237  and  _238
REMARK   99  A    between atoms: _237  and  _240
REMARK  100  A    between atoms: _240  and  _241
REMARK  101  A    between atoms: _241  and  _242
REMARK  102  A    between atoms: _242  and  _243
REMARK  103  A    between atoms: _252  and  _254
REMARK  104  A    between atoms: _254  and  _255
REMARK  105  A    between atoms: _254  and  _257
REMARK  106  A    between atoms: _257  and  _258
REMARK  107  A    between atoms: _258  and  _259
REMARK  108  A    between atoms: _259  and  _260
REMARK  109  A    between atoms: _269  and  _271
REMARK  110  A    between atoms: _271  and  _272
REMARK  111  A    between atoms: _271  and  _274
REMARK  112  A    between atoms: _274  and  _275
REMARK  113  A    between atoms: _278  and  _280
REMARK  114  A    between atoms: _280  and  _281
REMARK  115  A    between atoms: _280  and  _283
REMARK  116  A    between atoms: _283  and  _284
REMARK  117  A    between atoms: _287  and  _289
REMARK  118  A    between atoms: _289  and  _290
REMARK  119  A    between atoms: _289  and  _292
REMARK  120  A    between atoms: _292  and  _293
REMARK  121  A    between atoms: _296  and  _298
REMARK  122  A    between atoms: _298  and  _299
REMARK  123  A    between atoms: _298  and  _301
REMARK  124  A    between atoms: _301  and  _302
REMARK  125  A    between atoms: _305  and  _307
REMARK  126  A    between atoms: _307  and  _308
REMARK  127  A    between atoms: _310  and  _312
REMARK  128  A    between atoms: _312  and  _313
REMARK  129  A    between atoms: _316  and  _318
REMARK  130  A    between atoms: _318  and  _319
REMARK  131  A    between atoms: _318  and  _321
REMARK  132  A    between atoms: _321  and  _322
REMARK  133  A    between atoms: _325  and  _327
REMARK  134  A    between atoms: _327  and  _328
REMARK  135  A    between atoms: _327  and  _330
REMARK  136  A    between atoms: _330  and  _331
REMARK  137  A    between atoms: _334  and  _336
REMARK  138  A    between atoms: _336  and  _337
REMARK  139  A    between atoms: _336  and  _339
REMARK  140  A    between atoms: _339  and  _340
REMARK  141  A    between atoms: _343  and  _345
REMARK  142  A    between atoms: _345  and  _346
REMARK  143  A    between atoms: _345  and  _348
REMARK  144  A    between atoms: _351  and  _353
REMARK  145  A    between atoms: _353  and  _354
REMARK  146  A    between atoms: _353  and  _356
REMARK  147  A    between atoms: _356  and  _357
REMARK  148  A    between atoms: _357  and  _358
REMARK  149  A    between atoms: _358  and  _359
REMARK  150  A    between atoms: _359  and  _360
REMARK  151  A    between atoms: _364  and  _366
REMARK  152  A    between atoms: _366  and  _367
REMARK  153  A    between atoms: _366  and  _369
REMARK  154  A    between atoms: _369  and  _370
REMARK  155  A    between atoms: _370  and  _371
REMARK  156  A    between atoms: _373  and  _375
REMARK  157  A    between atoms: _375  and  _376
REMARK  158  A    between atoms: _375  and  _378
REMARK  159  A    between atoms: _378  and  _379
REMARK  160  A    between atoms: _382  and  _384
REMARK  161  A    between atoms: _384  and  _385
REMARK  162  A    between atoms: _387  and  _389
REMARK  163  A    between atoms: _389  and  _390
REMARK  164  A    between atoms: _392  and  _394
REMARK  165  A    between atoms: _394  and  _395
REMARK  166  A    between atoms: _394  and  _397
REMARK  167  A    between atoms: _397  and  _398
REMARK  168  A    between atoms: _401  and  _403
REMARK  169  A    between atoms: _403  and  _404
REMARK  170  A    between atoms: _406  and  _408
REMARK  171  A    between atoms: _408  and  _409
REMARK  172  A    between atoms: _411  and  _413
REMARK  173  A    between atoms: _413  and  _414
REMARK  174  A    between atoms: _413  and  _416
REMARK  175  A    between atoms: _416  and  _417
REMARK  176  A    between atoms: _423  and  _425
REMARK  177  A    between atoms: _425  and  _426
REMARK  178  A    between atoms: _425  and  _428
REMARK  179  A    between atoms: _428  and  _429
REMARK  180  A    between atoms: _432  and  _434
REMARK  181  A    between atoms: _434  and  _435
REMARK  182  A    between atoms: _434  and  _437
REMARK  183  A    between atoms: _440  and  _442
REMARK  184  A    between atoms: _442  and  _443
REMARK  185  A    between atoms: _442  and  _445
REMARK  186  A    between atoms: _445  and  _446
REMARK  187  A    between atoms: _450  and  _451
REMARK  188  A    between atoms: _456  and  _458
REMARK  189  A    between atoms: _458  and  _459
REMARK  190  A    between atoms: _458  and  _461
REMARK  191  A    between atoms: _461  and  _462
REMARK  192  A    between atoms: _466  and  _467
REMARK  193  A    between atoms: _472  and  _474
REMARK  194  A    between atoms: _474  and  _475
REMARK  195  A    between atoms: _474  and  _477
REMARK  196  A    between atoms: _480  and  _482
REMARK  197  A    between atoms: _482  and  _483
REMARK  198  A    between atoms: _482  and  _485
REMARK  199  A    between atoms: _485  and  _486
REMARK  200  A    between atoms: _491  and  _493
REMARK  201  A    between atoms: _493  and  _494
REMARK  202  A    between atoms: _493  and  _496
REMARK  203  A    between atoms: _496  and  _497
REMARK  204  A    between atoms: _500  and  _502
REMARK  205  A    between atoms: _502  and  _503
REMARK  206  A    between atoms: _502  and  _505
REMARK  207  A    between atoms: _505  and  _506
REMARK  208  A    between atoms: _509  and  _511
REMARK  209  A    between atoms: _511  and  _512
REMARK  210  A    between atoms: _514  and  _516
REMARK  211  A    between atoms: _516  and  _517
REMARK  212  A    between atoms: _516  and  _519
REMARK  213  A    between atoms: _519  and  _520
REMARK  214  A    between atoms: _520  and  _521
REMARK  215  A    between atoms: _521  and  _522
REMARK  216  A    between atoms: _531  and  _533
REMARK  217  A    between atoms: _533  and  _534
REMARK  218  A    between atoms: _533  and  _536
REMARK  219  A    between atoms: _536  and  _537
REMARK                            x       y       z     vdW  Elec       q    Type
REMARK                         _______ _______ _______ _____ _____    ______ ____
ROOT
ATOM      1  O   HOH     1      14.123  34.938  25.641  0.00  0.00    +0.000 OA
ENDROOT
TORSDOF 0
REMARK  Name = ../refined-set-2016/2qi3/2qi3_pocket.pdb
REMARK  219 active torsions:
REMARK  status: ('A' for Active; 'I' for Inactive)
REMARK    1  A    between atoms: _1  and  _3
REMARK    2  A    between atoms: _3  and  _4
REMARK    3  A    between atoms: _3  and  _6
REMARK    4  A    between atoms: _6  and  _7
REMARK    5  A    between atoms: _7  and  _8
REMARK    6  A    between atoms: _8  and  _9
REMARK    7  A    between atoms: _18  and  _20
REMARK    8  A    between atoms: _20  and  _21
REMARK    9  A    between atoms: _20  and  _23
REMARK   10  A    between atoms: _23  and  _24
REMARK   11  A    between atoms: _27  and  _29
REMARK   12  A    between atoms: _29  and  _30
REMARK   13  A    between atoms: _29  and  _32
REMARK   14  A    between atoms: _32  and  _33
REMARK   15  A    between atoms: _36  and  _38
REMARK   16  A    between atoms: _38  and  _39
REMARK   17  A    between atoms: _38  and  _41
REMARK   18  A    between atoms: _41  and  _42
REMARK   19  A    between atoms: _45  and  _47
REMARK   20  A    between atoms: _47  and  _48
REMARK   21  A    between atoms: _47  and  _50
REMARK   22  A    between atoms: _50  and  _51
REMARK   23  A    between atoms: _54  and  _56
REMARK   24  A    between atoms: _56  and  _57
REMARK   25  A    between atoms: _59  and  _61
REMARK   26  A    between atoms: _61  and  _62
REMARK   27  A    between atoms: _65  and  _67
REMARK   28  A    between atoms: _67  and  _68
REMARK   29  A    between atoms: _67  and  _70
REMARK   30  A    between atoms: _70  and  _71
REMARK   31  A    between atoms: _74  and  _76
REMARK   32  A    between atoms: _76  and  _77
REMARK   33  A    between atoms: _76  and  _79
REMARK   34  A    between atoms: _79  and  _80
REMARK   35  A    between atoms: _83  and  _85
REMARK   36  A    between atoms: _85  and  _86
REMARK   37  A    between atoms: _85  and  _88
REMARK   38  A    between atoms: _88  and  _89
REMARK   39  A    between atoms: _92  and  _94
REMARK   40  A    between atoms: _94  and  _95
REMARK   41  A    between atoms: _94  and  _97
REMARK   42  A    between atoms: _100  and  _102
REMARK   43  A    between atoms: _102  and  _103
REMARK   44  A    between atoms: _102  and  _105
REMARK   45  A    between atoms: _105  and  _106
REMARK   46  A    between atoms: _106  and  _107
REMARK   47  A    between atoms: _109  and  _111
REMARK   48  A    between atoms: _111  and  _112
REMARK   49  A    between atoms: _111  and  _114
REMARK   50  A    between atoms: _114  and  _115
REMARK   51  A    between atoms: _118  and  _120
REMARK   52  A    between atoms: _120  and  _121
REMARK   53  A    between atoms: _123  and  _125
REMARK   54  A    between atoms: _125  and  _126
REMARK   55  A    between atoms: _128  and  _130
REMARK   56  A    between atoms: _130  and  _131
REMARK   57  A    between atoms: _130  and  _133
REMARK   58  A    between atoms: _133  and  _134
REMARK   59  A    between atoms: _137  and  _139
REMARK   60  A    between atoms: _139  and  _140
REMARK   61  A    between atoms: _142  and  _144
REMARK   62  A    between atoms: _144  and  _145
REMARK   63  A    between atoms: _147  and  _149
REMARK   64  A    between atoms: _149  and  _150
REMARK   65  A    between atoms: _149  and  _152
REMARK   66  A    between atoms: _152  and  _153
REMARK   67  A    between atoms: _159  and  _161
REMARK   68  A    between atoms: _161  and  _162
REMARK   69  A    between atoms: _161  and  _164
REMARK   70  A    between atoms: _164  and  _165
REMARK   71  A    between atoms: _168  and  _170
REMARK   72  A    between atoms: _170  and  _171
REMARK   73  A    between atoms: _170  and  _173
REMARK   74  A    between atoms: _173  and  _174
REMARK   75  A    between atoms: _177  and  _179
REMARK   76  A    between atoms: _179  and  _180
REMARK   77  A    between atoms: _179  and  _182
REMARK   78  A    between atoms: _182  and  _183
REMARK   79  A    between atoms: _187  and  _188
REMARK   80  A    between atoms: _193  and  _195
REMARK   81  A    between atoms: _195  and  _196
REMARK   82  A    between atoms: _195  and  _198
REMARK   83  A    between atoms: _201  and  _203
REMARK   84  A    between atoms: _203  and  _204
REMARK   85  A    between atoms: _203  and  _206
REMARK   86  A    between atoms: _206  and  _207
REMARK   87  A    between atoms: _212  and  _214
REMARK   88  A    between atoms: _214  and  _215
REMARK   89  A    between atoms: _214  and  _217
REMARK   90  A    between atoms: _217  and  _218
REMARK   91  A    between atoms: _221  and  _223
REMARK   92  A    between atoms: _223  and  _224
REMARK   93  A    between atoms: _223  and  _226
REMARK   94  A    between atoms: _226  and  _227
REMARK   95  A    between atoms: _230  and  _232
REMARK   96  A    between atoms: _232  and  _233
REMARK   97  A    between atoms: _235  and  _237
REMARK   98  A    between atoms: _237  and  _238
REMARK   99  A    between atoms: _237  and  _240
REMARK  100  A    between atoms: _240  and  _241
REMARK  101  A    between atoms: _241  and  _242
REMARK  102  A    between atoms: _242  and  _243
REMARK  103  A    between atoms: _252  and  _254
REMARK  104  A    between atoms: _254  and  _255
REMARK  105  A    between atoms: _254  and  _257
REMARK  106  A    between atoms: _257  and  _258
REMARK  107  A    between atoms: _258  and  _259
REMARK  108  A    between atoms: _259  and  _260
REMARK  109  A    between atoms: _269  and  _271
REMARK  110  A    between atoms: _271  and  _272
REMARK  111  A    between atoms: _271  and  _274
REMARK  112  A    between atoms: _274  and  _275
REMARK  113  A    between atoms: _278  and  _280
REMARK  114  A    between atoms: _280  and  _281
REMARK  115  A    between atoms: _280  and  _283
REMARK  116  A    between atoms: _283  and  _284
REMARK  117  A    between atoms: _287  and  _289
REMARK  118  A    between atoms: _289  and  _290
REMARK  119  A    between atoms: _289  and  _292
REMARK  120  A    between atoms: _292  and  _293
REMARK  121  A    between atoms: _296  and  _298
REMARK  122  A    between atoms: _298  and  _299
REMARK  123  A    between atoms: _298  and  _301
REMARK  124  A    between atoms: _301  and  _302
REMARK  125  A    between atoms: _305  and  _307
REMARK  126  A    between atoms: _307  and  _308
REMARK  127  A    between atoms: _310  and  _312
REMARK  128  A    between atoms: _312  and  _313
REMARK  129  A    between atoms: _316  and  _318
REMARK  130  A    between atoms: _318  and  _319
REMARK  131  A    between atoms: _318  and  _321
REMARK  132  A    between atoms: _321  and  _322
REMARK  133  A    between atoms: _325  and  _327
REMARK  134  A    between atoms: _327  and  _328
REMARK  135  A    between atoms: _327  and  _330
REMARK  136  A    between atoms: _330  and  _331
REMARK  137  A    between atoms: _334  and  _336
REMARK  138  A    between atoms: _336  and  _337
REMARK  139  A    between atoms: _336  and  _339
REMARK  140  A    between atoms: _339  and  _340
REMARK  141  A    between atoms: _343  and  _345
REMARK  142  A    between atoms: _345  and  _346
REMARK  143  A    between atoms: _345  and  _348
REMARK  144  A    between atoms: _351  and  _353
REMARK  145  A    between atoms: _353  and  _354
REMARK  146  A    between atoms: _353  and  _356
REMARK  147  A    between atoms: _356  and  _357
REMARK  148  A    between atoms: _357  and  _358
REMARK  149  A    between atoms: _358  and  _359
REMARK  150  A    between atoms: _359  and  _360
REMARK  151  A    between atoms: _364  and  _366
REMARK  152  A    between atoms: _366  and  _367
REMARK  153  A    between atoms: _366  and  _369
REMARK  154  A    between atoms: _369  and  _370
REMARK  155  A    between atoms: _370  and  _371
REMARK  156  A    between atoms: _373  and  _375
REMARK  157  A    between atoms: _375  and  _376
REMARK  158  A    between atoms: _375  and  _378
REMARK  159  A    between atoms: _378  and  _379
REMARK  160  A    between atoms: _382  and  _384
REMARK  161  A    between atoms: _384  and  _385
REMARK  162  A    between atoms: _387  and  _389
REMARK  163  A    between atoms: _389  and  _390
REMARK  164  A    between atoms: _392  and  _394
REMARK  165  A    between atoms: _394  and  _395
REMARK  166  A    between atoms: _394  and  _397
REMARK  167  A    between atoms: _397  and  _398
REMARK  168  A    between atoms: _401  and  _403
REMARK  169  A    between atoms: _403  and  _404
REMARK  170  A    between atoms: _406  and  _408
REMARK  171  A    between atoms: _408  and  _409
REMARK  172  A    between atoms: _411  and  _413
REMARK  173  A    between atoms: _413  and  _414
REMARK  174  A    between atoms: _413  and  _416
REMARK  175  A    between atoms: _416  and  _417
REMARK  176  A    between atoms: _423  and  _425
REMARK  177  A    between atoms: _425  and  _426
REMARK  178  A    between atoms: _425  and  _428
REMARK  179  A    between atoms: _428  and  _429
REMARK  180  A    between atoms: _432  and  _434
REMARK  181  A    between atoms: _434  and  _435
REMARK  182  A    between atoms: _434  and  _437
REMARK  183  A    between atoms: _440  and  _442
REMARK  184  A    between atoms: _442  and  _443
REMARK  185  A    between atoms: _442  and  _445
REMARK  186  A    between atoms: _445  and  _446
REMARK  187  A    between atoms: _450  and  _451
REMARK  188  A    between atoms: _456  and  _458
REMARK  189  A    between atoms: _458  and  _459
REMARK  190  A    between atoms: _458  and  _461
REMARK  191  A    between atoms: _461  and  _462
REMARK  192  A    between atoms: _466  and  _467
REMARK  193  A    between atoms: _472  and  _474
REMARK  194  A    between atoms: _474  and  _475
REMARK  195  A    between atoms: _474  and  _477
REMARK  196  A    between atoms: _480  and  _482
REMARK  197  A    between atoms: _482  and  _483
REMARK  198  A    between atoms: _482  and  _485
REMARK  199  A    between atoms: _485  and  _486
REMARK  200  A    between atoms: _491  and  _493
REMARK  201  A    between atoms: _493  and  _494
REMARK  202  A    between atoms: _493  and  _496
REMARK  203  A    between atoms: _496  and  _497
REMARK  204  A    between atoms: _500  and  _502
REMARK  205  A    between atoms: _502  and  _503
REMARK  206  A    between atoms: _502  and  _505
REMARK  207  A    between atoms: _505  and  _506
REMARK  208  A    between atoms: _509  and  _511
REMARK  209  A    between atoms: _511  and  _512
REMARK  210  A    between atoms: _514  and  _516
REMARK  211  A    between atoms: _516  and  _517
REMARK  212  A    between atoms: _516  and  _519
REMARK  213  A    between atoms: _519  and  _520
REMARK  214  A    between atoms: _520  and  _521
REMARK  215  A    between atoms: _521  and  _522
REMARK  216  A    between atoms: _531  and  _533
REMARK  217  A    between atoms: _533  and  _534
REMARK  218  A    between atoms: _533  and  _536
REMARK  219  A    between atoms: _536  and  _537
REMARK                            x       y       z     vdW  Elec       q    Type
REMARK                         _______ _______ _______ _____ _____    ______ ____
ROOT
ATOM      1  O   HOH     1      15.074  20.986  10.877  0.00  0.00    +0.000 OA
ENDROOT
TORSDOF 0
REMARK  Name = ../refined-set-2016/2qi3/2qi3_pocket.pdb
REMARK  219 active torsions:
REMARK  status: ('A' for Active; 'I' for Inactive)
REMARK    1  A    between atoms: _1  and  _3
REMARK    2  A    between atoms: _3  and  _4
REMARK    3  A    between atoms: _3  and  _6
REMARK    4  A    between atoms: _6  and  _7
REMARK    5  A    between atoms: _7  and  _8
REMARK    6  A    between atoms: _8  and  _9
REMARK    7  A    between atoms: _18  and  _20
REMARK    8  A    between atoms: _20  and  _21
REMARK    9  A    between atoms: _20  and  _23
REMARK   10  A    between atoms: _23  and  _24
REMARK   11  A    between atoms: _27  and  _29
REMARK   12  A    between atoms: _29  and  _30
REMARK   13  A    between atoms: _29  and  _32
REMARK   14  A    between atoms: _32  and  _33
REMARK   15  A    between atoms: _36  and  _38
REMARK   16  A    between atoms: _38  and  _39
REMARK   17  A    between atoms: _38  and  _41
REMARK   18  A    between atoms: _41  and  _42
REMARK   19  A    between atoms: _45  and  _47
REMARK   20  A    between atoms: _47  and  _48
REMARK   21  A    between atoms: _47  and  _50
REMARK   22  A    between atoms: _50  and  _51
REMARK   23  A    between atoms: _54  and  _56
REMARK   24  A    between atoms: _56  and  _57
REMARK   25  A    between atoms: _59  and  _61
REMARK   26  A    between atoms: _61  and  _62
REMARK   27  A    between atoms: _65  and  _67
REMARK   28  A    between atoms: _67  and  _68
REMARK   29  A    between atoms: _67  and  _70
REMARK   30  A    between atoms: _70  and  _71
REMARK   31  A    between atoms: _74  and  _76
REMARK   32  A    between atoms: _76  and  _77
REMARK   33  A    between atoms: _76  and  _79
REMARK   34  A    between atoms: _79  and  _80
REMARK   35  A    between atoms: _83  and  _85
REMARK   36  A    between atoms: _85  and  _86
REMARK   37  A    between atoms: _85  and  _88
REMARK   38  A    between atoms: _88  and  _89
REMARK   39  A    between atoms: _92  and  _94
REMARK   40  A    between atoms: _94  and  _95
REMARK   41  A    between atoms: _94  and  _97
REMARK   42  A    between atoms: _100  and  _102
REMARK   43  A    between atoms: _102  and  _103
REMARK   44  A    between atoms: _102  and  _105
REMARK   45  A    between atoms: _105  and  _106
REMARK   46  A    between atoms: _106  and  _107
REMARK   47  A    between atoms: _109  and  _111
REMARK   48  A    between atoms: _111  and  _112
REMARK   49  A    between atoms: _111  and  _114
REMARK   50  A    between atoms: _114  and  _115
REMARK   51  A    between atoms: _118  and  _120
REMARK   52  A    between atoms: _120  and  _121
REMARK   53  A    between atoms: _123  and  _125
REMARK   54  A    between atoms: _125  and  _126
REMARK   55  A    between atoms: _128  and  _130
REMARK   56  A    between atoms: _130  and  _131
REMARK   57  A    between atoms: _130  and  _133
REMARK   58  A    between atoms: _133  and  _134
REMARK   59  A    between atoms: _137  and  _139
REMARK   60  A    between atoms: _139  and  _140
REMARK   61  A    between atoms: _142  and  _144
REMARK   62  A    between atoms: _144  and  _145
REMARK   63  A    between atoms: _147  and  _149
REMARK   64  A    between atoms: _149  and  _150
REMARK   65  A    between atoms: _149  and  _152
REMARK   66  A    between atoms: _152  and  _153
REMARK   67  A    between atoms: _159  and  _161
REMARK   68  A    between atoms: _161  and  _162
REMARK   69  A    between atoms: _161  and  _164
REMARK   70  A    between atoms: _164  and  _165
REMARK   71  A    between atoms: _168  and  _170
REMARK   72  A    between atoms: _170  and  _171
REMARK   73  A    between atoms: _170  and  _173
REMARK   74  A    between atoms: _173  and  _174
REMARK   75  A    between atoms: _177  and  _179
REMARK   76  A    between atoms: _179  and  _180
REMARK   77  A    between atoms: _179  and  _182
REMARK   78  A    between atoms: _182  and  _183
REMARK   79  A    between atoms: _187  and  _188
REMARK   80  A    between atoms: _193  and  _195
REMARK   81  A    between atoms: _195  and  _196
REMARK   82  A    between atoms: _195  and  _198
REMARK   83  A    between atoms: _201  and  _203
REMARK   84  A    between atoms: _203  and  _204
REMARK   85  A    between atoms: _203  and  _206
REMARK   86  A    between atoms: _206  and  _207
REMARK   87  A    between atoms: _212  and  _214
REMARK   88  A    between atoms: _214  and  _215
REMARK   89  A    between atoms: _214  and  _217
REMARK   90  A    between atoms: _217  and  _218
REMARK   91  A    between atoms: _221  and  _223
REMARK   92  A    between atoms: _223  and  _224
REMARK   93  A    between atoms: _223  and  _226
REMARK   94  A    between atoms: _226  and  _227
REMARK   95  A    between atoms: _230  and  _232
REMARK   96  A    between atoms: _232  and  _233
REMARK   97  A    between atoms: _235  and  _237
REMARK   98  A    between atoms: _237  and  _238
REMARK   99  A    between atoms: _237  and  _240
REMARK  100  A    between atoms: _240  and  _241
REMARK  101  A    between atoms: _241  and  _242
REMARK  102  A    between atoms: _242  and  _243
REMARK  103  A    between atoms: _252  and  _254
REMARK  104  A    between atoms: _254  and  _255
REMARK  105  A    between atoms: _254  and  _257
REMARK  106  A    between atoms: _257  and  _258
REMARK  107  A    between atoms: _258  and  _259
REMARK  108  A    between atoms: _259  and  _260
REMARK  109  A    between atoms: _269  and  _271
REMARK  110  A    between atoms: _271  and  _272
REMARK  111  A    between atoms: _271  and  _274
REMARK  112  A    between atoms: _274  and  _275
REMARK  113  A    between atoms: _278  and  _280
REMARK  114  A    between atoms: _280  and  _281
REMARK  115  A    between atoms: _280  and  _283
REMARK  116  A    between atoms: _283  and  _284
REMARK  117  A    between atoms: _287  and  _289
REMARK  118  A    between atoms: _289  and  _290
REMARK  119  A    between atoms: _289  and  _292
REMARK  120  A    between atoms: _292  and  _293
REMARK  121  A    between atoms: _296  and  _298
REMARK  122  A    between atoms: _298  and  _299
REMARK  123  A    between atoms: _298  and  _301
REMARK  124  A    between atoms: _301  and  _302
REMARK  125  A    between atoms: _305  and  _307
REMARK  126  A    between atoms: _307  and  _308
REMARK  127  A    between atoms: _310  and  _312
REMARK  128  A    between atoms: _312  and  _313
REMARK  129  A    between atoms: _316  and  _318
REMARK  130  A    between atoms: _318  and  _319
REMARK  131  A    between atoms: _318  and  _321
REMARK  132  A    between atoms: _321  and  _322
REMARK  133  A    between atoms: _325  and  _327
REMARK  134  A    between atoms: _327  and  _328
REMARK  135  A    between atoms: _327  and  _330
REMARK  136  A    between atoms: _330  and  _331
REMARK  137  A    between atoms: _334  and  _336
REMARK  138  A    between atoms: _336  and  _337
REMARK  139  A    between atoms: _336  and  _339
REMARK  140  A    between atoms: _339  and  _340
REMARK  141  A    between atoms: _343  and  _345
REMARK  142  A    between atoms: _345  and  _346
REMARK  143  A    between atoms: _345  and  _348
REMARK  144  A    between atoms: _351  and  _353
REMARK  145  A    between atoms: _353  and  _354
REMARK  146  A    between atoms: _353  and  _356
REMARK  147  A    between atoms: _356  and  _357
REMARK  148  A    between atoms: _357  and  _358
REMARK  149  A    between atoms: _358  and  _359
REMARK  150  A    between atoms: _359  and  _360
REMARK  151  A    between atoms: _364  and  _366
REMARK  152  A    between atoms: _366  and  _367
REMARK  153  A    between atoms: _366  and  _369
REMARK  154  A    between atoms: _369  and  _370
REMARK  155  A    between atoms: _370  and  _371
REMARK  156  A    between atoms: _373  and  _375
REMARK  157  A    between atoms: _375  and  _376
REMARK  158  A    between atoms: _375  and  _378
REMARK  159  A    between atoms: _378  and  _379
REMARK  160  A    between atoms: _382  and  _384
REMARK  161  A    between atoms: _384  and  _385
REMARK  162  A    between atoms: _387  and  _389
REMARK  163  A    between atoms: _389  and  _390
REMARK  164  A    between atoms: _392  and  _394
REMARK  165  A    between atoms: _394  and  _395
REMARK  166  A    between atoms: _394  and  _397
REMARK  167  A    between atoms: _397  and  _398
REMARK  168  A    between atoms: _401  and  _403
REMARK  169  A    between atoms: _403  and  _404
REMARK  170  A    between atoms: _406  and  _408
REMARK  171  A    between atoms: _408  and  _409
REMARK  172  A    between atoms: _411  and  _413
REMARK  173  A    between atoms: _413  and  _414
REMARK  174  A    between atoms: _413  and  _416
REMARK  175  A    between atoms: _416  and  _417
REMARK  176  A    between atoms: _423  and  _425
REMARK  177  A    between atoms: _425  and  _426
REMARK  178  A    between atoms: _425  and  _428
REMARK  179  A    between atoms: _428  and  _429
REMARK  180  A    between atoms: _432  and  _434
REMARK  181  A    between atoms: _434  and  _435
REMARK  182  A    between atoms: _434  and  _437
REMARK  183  A    between atoms: _440  and  _442
REMARK  184  A    between atoms: _442  and  _443
REMARK  185  A    between atoms: _442  and  _445
REMARK  186  A    between atoms: _445  and  _446
REMARK  187  A    between atoms: _450  and  _451
REMARK  188  A    between atoms: _456  and  _458
REMARK  189  A    between atoms: _458  and  _459
REMARK  190  A    between atoms: _458  and  _461
REMARK  191  A    between atoms: _461  and  _462
REMARK  192  A    between atoms: _466  and  _467
REMARK  193  A    between atoms: _472  and  _474
REMARK  194  A    between atoms: _474  and  _475
REMARK  195  A    between atoms: _474  and  _477
REMARK  196  A    between atoms: _480  and  _482
REMARK  197  A    between atoms: _482  and  _483
REMARK  198  A    between atoms: _482  and  _485
REMARK  199  A    between atoms: _485  and  _486
REMARK  200  A    between atoms: _491  and  _493
REMARK  201  A    between atoms: _493  and  _494
REMARK  202  A    between atoms: _493  and  _496
REMARK  203  A    between atoms: _496  and  _497
REMARK  204  A    between atoms: _500  and  _502
REMARK  205  A    between atoms: _502  and  _503
REMARK  206  A    between atoms: _502  and  _505
REMARK  207  A    between atoms: _505  and  _506
REMARK  208  A    between atoms: _509  and  _511
REMARK  209  A    between atoms: _511  and  _512
REMARK  210  A    between atoms: _514  and  _516
REMARK  211  A    between atoms: _516  and  _517
REMARK  212  A    between atoms: _516  and  _519
REMARK  213  A    between atoms: _519  and  _520
REMARK  214  A    between atoms: _520  and  _521
REMARK  215  A    between atoms: _521  and  _522
REMARK  216  A    between atoms: _531  and  _533
REMARK  217  A    between atoms: _533  and  _534
REMARK  218  A    between atoms: _533  and  _536
REMARK  219  A    between atoms: _536  and  _537
REMARK                            x       y       z     vdW  Elec       q    Type
REMARK                         _______ _______ _______ _____ _____    ______ ____
ROOT
ATOM      1  O   HOH     1      12.469  21.115  10.462  0.00  0.00    +0.000 OA
ENDROOT
TORSDOF 0
REMARK  Name = ../refined-set-2016/2qi3/2qi3_pocket.pdb
REMARK  219 active torsions:
REMARK  status: ('A' for Active; 'I' for Inactive)
REMARK    1  A    between atoms: _1  and  _3
REMARK    2  A    between atoms: _3  and  _4
REMARK    3  A    between atoms: _3  and  _6
REMARK    4  A    between atoms: _6  and  _7
REMARK    5  A    between atoms: _7  and  _8
REMARK    6  A    between atoms: _8  and  _9
REMARK    7  A    between atoms: _18  and  _20
REMARK    8  A    between atoms: _20  and  _21
REMARK    9  A    between atoms: _20  and  _23
REMARK   10  A    between atoms: _23  and  _24
REMARK   11  A    between atoms: _27  and  _29
REMARK   12  A    between atoms: _29  and  _30
REMARK   13  A    between atoms: _29  and  _32
REMARK   14  A    between atoms: _32  and  _33
REMARK   15  A    between atoms: _36  and  _38
REMARK   16  A    between atoms: _38  and  _39
REMARK   17  A    between atoms: _38  and  _41
REMARK   18  A    between atoms: _41  and  _42
REMARK   19  A    between atoms: _45  and  _47
REMARK   20  A    between atoms: _47  and  _48
REMARK   21  A    between atoms: _47  and  _50
REMARK   22  A    between atoms: _50  and  _51
REMARK   23  A    between atoms: _54  and  _56
REMARK   24  A    between atoms: _56  and  _57
REMARK   25  A    between atoms: _59  and  _61
REMARK   26  A    between atoms: _61  and  _62
REMARK   27  A    between atoms: _65  and  _67
REMARK   28  A    between atoms: _67  and  _68
REMARK   29  A    between atoms: _67  and  _70
REMARK   30  A    between atoms: _70  and  _71
REMARK   31  A    between atoms: _74  and  _76
REMARK   32  A    between atoms: _76  and  _77
REMARK   33  A    between atoms: _76  and  _79
REMARK   34  A    between atoms: _79  and  _80
REMARK   35  A    between atoms: _83  and  _85
REMARK   36  A    between atoms: _85  and  _86
REMARK   37  A    between atoms: _85  and  _88
REMARK   38  A    between atoms: _88  and  _89
REMARK   39  A    between atoms: _92  and  _94
REMARK   40  A    between atoms: _94  and  _95
REMARK   41  A    between atoms: _94  and  _97
REMARK   42  A    between atoms: _100  and  _102
REMARK   43  A    between atoms: _102  and  _103
REMARK   44  A    between atoms: _102  and  _105
REMARK   45  A    between atoms: _105  and  _106
REMARK   46  A    between atoms: _106  and  _107
REMARK   47  A    between atoms: _109  and  _111
REMARK   48  A    between atoms: _111  and  _112
REMARK   49  A    between atoms: _111  and  _114
REMARK   50  A    between atoms: _114  and  _115
REMARK   51  A    between atoms: _118  and  _120
REMARK   52  A    between atoms: _120  and  _121
REMARK   53  A    between atoms: _123  and  _125
REMARK   54  A    between atoms: _125  and  _126
REMARK   55  A    between atoms: _128  and  _130
REMARK   56  A    between atoms: _130  and  _131
REMARK   57  A    between atoms: _130  and  _133
REMARK   58  A    between atoms: _133  and  _134
REMARK   59  A    between atoms: _137  and  _139
REMARK   60  A    between atoms: _139  and  _140
REMARK   61  A    between atoms: _142  and  _144
REMARK   62  A    between atoms: _144  and  _145
REMARK   63  A    between atoms: _147  and  _149
REMARK   64  A    between atoms: _149  and  _150
REMARK   65  A    between atoms: _149  and  _152
REMARK   66  A    between atoms: _152  and  _153
REMARK   67  A    between atoms: _159  and  _161
REMARK   68  A    between atoms: _161  and  _162
REMARK   69  A    between atoms: _161  and  _164
REMARK   70  A    between atoms: _164  and  _165
REMARK   71  A    between atoms: _168  and  _170
REMARK   72  A    between atoms: _170  and  _171
REMARK   73  A    between atoms: _170  and  _173
REMARK   74  A    between atoms: _173  and  _174
REMARK   75  A    between atoms: _177  and  _179
REMARK   76  A    between atoms: _179  and  _180
REMARK   77  A    between atoms: _179  and  _182
REMARK   78  A    between atoms: _182  and  _183
REMARK   79  A    between atoms: _187  and  _188
REMARK   80  A    between atoms: _193  and  _195
REMARK   81  A    between atoms: _195  and  _196
REMARK   82  A    between atoms: _195  and  _198
REMARK   83  A    between atoms: _201  and  _203
REMARK   84  A    between atoms: _203  and  _204
REMARK   85  A    between atoms: _203  and  _206
REMARK   86  A    between atoms: _206  and  _207
REMARK   87  A    between atoms: _212  and  _214
REMARK   88  A    between atoms: _214  and  _215
REMARK   89  A    between atoms: _214  and  _217
REMARK   90  A    between atoms: _217  and  _218
REMARK   91  A    between atoms: _221  and  _223
REMARK   92  A    between atoms: _223  and  _224
REMARK   93  A    between atoms: _223  and  _226
REMARK   94  A    between atoms: _226  and  _227
REMARK   95  A    between atoms: _230  and  _232
REMARK   96  A    between atoms: _232  and  _233
REMARK   97  A    between atoms: _235  and  _237
REMARK   98  A    between atoms: _237  and  _238
REMARK   99  A    between atoms: _237  and  _240
REMARK  100  A    between atoms: _240  and  _241
REMARK  101  A    between atoms: _241  and  _242
REMARK  102  A    between atoms: _242  and  _243
REMARK  103  A    between atoms: _252  and  _254
REMARK  104  A    between atoms: _254  and  _255
REMARK  105  A    between atoms: _254  and  _257
REMARK  106  A    between atoms: _257  and  _258
REMARK  107  A    between atoms: _258  and  _259
REMARK  108  A    between atoms: _259  and  _260
REMARK  109  A    between atoms: _269  and  _271
REMARK  110  A    between atoms: _271  and  _272
REMARK  111  A    between atoms: _271  and  _274
REMARK  112  A    between atoms: _274  and  _275
REMARK  113  A    between atoms: _278  and  _280
REMARK  114  A    between atoms: _280  and  _281
REMARK  115  A    between atoms: _280  and  _283
REMARK  116  A    between atoms: _283  and  _284
REMARK  117  A    between atoms: _287  and  _289
REMARK  118  A    between atoms: _289  and  _290
REMARK  119  A    between atoms: _289  and  _292
REMARK  120  A    between atoms: _292  and  _293
REMARK  121  A    between atoms: _296  and  _298
REMARK  122  A    between atoms: _298  and  _299
REMARK  123  A    between atoms: _298  and  _301
REMARK  124  A    between atoms: _301  and  _302
REMARK  125  A    between atoms: _305  and  _307
REMARK  126  A    between atoms: _307  and  _308
REMARK  127  A    between atoms: _310  and  _312
REMARK  128  A    between atoms: _312  and  _313
REMARK  129  A    between atoms: _316  and  _318
REMARK  130  A    between atoms: _318  and  _319
REMARK  131  A    between atoms: _318  and  _321
REMARK  132  A    between atoms: _321  and  _322
REMARK  133  A    between atoms: _325  and  _327
REMARK  134  A    between atoms: _327  and  _328
REMARK  135  A    between atoms: _327  and  _330
REMARK  136  A    between atoms: _330  and  _331
REMARK  137  A    between atoms: _334  and  _336
REMARK  138  A    between atoms: _336  and  _337
REMARK  139  A    between atoms: _336  and  _339
REMARK  140  A    between atoms: _339  and  _340
REMARK  141  A    between atoms: _343  and  _345
REMARK  142  A    between atoms: _345  and  _346
REMARK  143  A    between atoms: _345  and  _348
REMARK  144  A    between atoms: _351  and  _353
REMARK  145  A    between atoms: _353  and  _354
REMARK  146  A    between atoms: _353  and  _356
REMARK  147  A    between atoms: _356  and  _357
REMARK  148  A    between atoms: _357  and  _358
REMARK  149  A    between atoms: _358  and  _359
REMARK  150  A    between atoms: _359  and  _360
REMARK  151  A    between atoms: _364  and  _366
REMARK  152  A    between atoms: _366  and  _367
REMARK  153  A    between atoms: _366  and  _369
REMARK  154  A    between atoms: _369  and  _370
REMARK  155  A    between atoms: _370  and  _371
REMARK  156  A    between atoms: _373  and  _375
REMARK  157  A    between atoms: _375  and  _376
REMARK  158  A    between atoms: _375  and  _378
REMARK  159  A    between atoms: _378  and  _379
REMARK  160  A    between atoms: _382  and  _384
REMARK  161  A    between atoms: _384  and  _385
REMARK  162  A    between atoms: _387  and  _389
REMARK  163  A    between atoms: _389  and  _390
REMARK  164  A    between atoms: _392  and  _394
REMARK  165  A    between atoms: _394  and  _395
REMARK  166  A    between atoms: _394  and  _397
REMARK  167  A    between atoms: _397  and  _398
REMARK  168  A    between atoms: _401  and  _403
REMARK  169  A    between atoms: _403  and  _404
REMARK  170  A    between atoms: _406  and  _408
REMARK  171  A    between atoms: _408  and  _409
REMARK  172  A    between atoms: _411  and  _413
REMARK  173  A    between atoms: _413  and  _414
REMARK  174  A    between atoms: _413  and  _416
REMARK  175  A    between atoms: _416  and  _417
REMARK  176  A    between atoms: _423  and  _425
REMARK  177  A    between atoms: _425  and  _426
REMARK  178  A    between atoms: _425  and  _428
REMARK  179  A    between atoms: _428  and  _429
REMARK  180  A    between atoms: _432  and  _434
REMARK  181  A    between atoms: _434  and  _435
REMARK  182  A    between atoms: _434  and  _437
REMARK  183  A    between atoms: _440  and  _442
REMARK  184  A    between atoms: _442  and  _443
REMARK  185  A    between atoms: _442  and  _445
REMARK  186  A    between atoms: _445  and  _446
REMARK  187  A    between atoms: _450  and  _451
REMARK  188  A    between atoms: _456  and  _458
REMARK  189  A    between atoms: _458  and  _459
REMARK  190  A    between atoms: _458  and  _461
REMARK  191  A    between atoms: _461  and  _462
REMARK  192  A    between atoms: _466  and  _467
REMARK  193  A    between atoms: _472  and  _474
REMARK  194  A    between atoms: _474  and  _475
REMARK  195  A    between atoms: _474  and  _477
REMARK  196  A    between atoms: _480  and  _482
REMARK  197  A    between atoms: _482  and  _483
REMARK  198  A    between atoms: _482  and  _485
REMARK  199  A    between atoms: _485  and  _486
REMARK  200  A    between atoms: _491  and  _493
REMARK  201  A    between atoms: _493  and  _494
REMARK  202  A    between atoms: _493  and  _496
REMARK  203  A    between atoms: _496  and  _497
REMARK  204  A    between atoms: _500  and  _502
REMARK  205  A    between atoms: _502  and  _503
REMARK  206  A    between atoms: _502  and  _505
REMARK  207  A    between atoms: _505  and  _506
REMARK  208  A    between atoms: _509  and  _511
REMARK  209  A    between atoms: _511  and  _512
REMARK  210  A    between atoms: _514  and  _516
REMARK  211  A    between atoms: _516  and  _517
REMARK  212  A    between atoms: _516  and  _519
REMARK  213  A    between atoms: _519  and  _520
REMARK  214  A    between atoms: _520  and  _521
REMARK  215  A    between atoms: _521  and  _522
REMARK  216  A    between atoms: _531  and  _533
REMARK  217  A    between atoms: _533  and  _534
REMARK  218  A    between atoms: _533  and  _536
REMARK  219  A    between atoms: _536  and  _537
REMARK                            x       y       z     vdW  Elec       q    Type
REMARK                         _______ _______ _______ _____ _____    ______ ____
ROOT
ATOM      1  O   HOH     1      19.858  38.075  16.449  0.00  0.00    +0.000 OA
ENDROOT
TORSDOF 0
REMARK  Name = ../refined-set-2016/2qi3/2qi3_pocket.pdb
REMARK  219 active torsions:
REMARK  status: ('A' for Active; 'I' for Inactive)
REMARK    1  A    between atoms: _1  and  _3
REMARK    2  A    between atoms: _3  and  _4
REMARK    3  A    between atoms: _3  and  _6
REMARK    4  A    between atoms: _6  and  _7
REMARK    5  A    between atoms: _7  and  _8
REMARK    6  A    between atoms: _8  and  _9
REMARK    7  A    between atoms: _18  and  _20
REMARK    8  A    between atoms: _20  and  _21
REMARK    9  A    between atoms: _20  and  _23
REMARK   10  A    between atoms: _23  and  _24
REMARK   11  A    between atoms: _27  and  _29
REMARK   12  A    between atoms: _29  and  _30
REMARK   13  A    between atoms: _29  and  _32
REMARK   14  A    between atoms: _32  and  _33
REMARK   15  A    between atoms: _36  and  _38
REMARK   16  A    between atoms: _38  and  _39
REMARK   17  A    between atoms: _38  and  _41
REMARK   18  A    between atoms: _41  and  _42
REMARK   19  A    between atoms: _45  and  _47
REMARK   20  A    between atoms: _47  and  _48
REMARK   21  A    between atoms: _47  and  _50
REMARK   22  A    between atoms: _50  and  _51
REMARK   23  A    between atoms: _54  and  _56
REMARK   24  A    between atoms: _56  and  _57
REMARK   25  A    between atoms: _59  and  _61
REMARK   26  A    between atoms: _61  and  _62
REMARK   27  A    between atoms: _65  and  _67
REMARK   28  A    between atoms: _67  and  _68
REMARK   29  A    between atoms: _67  and  _70
REMARK   30  A    between atoms: _70  and  _71
REMARK   31  A    between atoms: _74  and  _76
REMARK   32  A    between atoms: _76  and  _77
REMARK   33  A    between atoms: _76  and  _79
REMARK   34  A    between atoms: _79  and  _80
REMARK   35  A    between atoms: _83  and  _85
REMARK   36  A    between atoms: _85  and  _86
REMARK   37  A    between atoms: _85  and  _88
REMARK   38  A    between atoms: _88  and  _89
REMARK   39  A    between atoms: _92  and  _94
REMARK   40  A    between atoms: _94  and  _95
REMARK   41  A    between atoms: _94  and  _97
REMARK   42  A    between atoms: _100  and  _102
REMARK   43  A    between atoms: _102  and  _103
REMARK   44  A    between atoms: _102  and  _105
REMARK   45  A    between atoms: _105  and  _106
REMARK   46  A    between atoms: _106  and  _107
REMARK   47  A    between atoms: _109  and  _111
REMARK   48  A    between atoms: _111  and  _112
REMARK   49  A    between atoms: _111  and  _114
REMARK   50  A    between atoms: _114  and  _115
REMARK   51  A    between atoms: _118  and  _120
REMARK   52  A    between atoms: _120  and  _121
REMARK   53  A    between atoms: _123  and  _125
REMARK   54  A    between atoms: _125  and  _126
REMARK   55  A    between atoms: _128  and  _130
REMARK   56  A    between atoms: _130  and  _131
REMARK   57  A    between atoms: _130  and  _133
REMARK   58  A    between atoms: _133  and  _134
REMARK   59  A    between atoms: _137  and  _139
REMARK   60  A    between atoms: _139  and  _140
REMARK   61  A    between atoms: _142  and  _144
REMARK   62  A    between atoms: _144  and  _145
REMARK   63  A    between atoms: _147  and  _149
REMARK   64  A    between atoms: _149  and  _150
REMARK   65  A    between atoms: _149  and  _152
REMARK   66  A    between atoms: _152  and  _153
REMARK   67  A    between atoms: _159  and  _161
REMARK   68  A    between atoms: _161  and  _162
REMARK   69  A    between atoms: _161  and  _164
REMARK   70  A    between atoms: _164  and  _165
REMARK   71  A    between atoms: _168  and  _170
REMARK   72  A    between atoms: _170  and  _171
REMARK   73  A    between atoms: _170  and  _173
REMARK   74  A    between atoms: _173  and  _174
REMARK   75  A    between atoms: _177  and  _179
REMARK   76  A    between atoms: _179  and  _180
REMARK   77  A    between atoms: _179  and  _182
REMARK   78  A    between atoms: _182  and  _183
REMARK   79  A    between atoms: _187  and  _188
REMARK   80  A    between atoms: _193  and  _195
REMARK   81  A    between atoms: _195  and  _196
REMARK   82  A    between atoms: _195  and  _198
REMARK   83  A    between atoms: _201  and  _203
REMARK   84  A    between atoms: _203  and  _204
REMARK   85  A    between atoms: _203  and  _206
REMARK   86  A    between atoms: _206  and  _207
REMARK   87  A    between atoms: _212  and  _214
REMARK   88  A    between atoms: _214  and  _215
REMARK   89  A    between atoms: _214  and  _217
REMARK   90  A    between atoms: _217  and  _218
REMARK   91  A    between atoms: _221  and  _223
REMARK   92  A    between atoms: _223  and  _224
REMARK   93  A    between atoms: _223  and  _226
REMARK   94  A    between atoms: _226  and  _227
REMARK   95  A    between atoms: _230  and  _232
REMARK   96  A    between atoms: _232  and  _233
REMARK   97  A    between atoms: _235  and  _237
REMARK   98  A    between atoms: _237  and  _238
REMARK   99  A    between atoms: _237  and  _240
REMARK  100  A    between atoms: _240  and  _241
REMARK  101  A    between atoms: _241  and  _242
REMARK  102  A    between atoms: _242  and  _243
REMARK  103  A    between atoms: _252  and  _254
REMARK  104  A    between atoms: _254  and  _255
REMARK  105  A    between atoms: _254  and  _257
REMARK  106  A    between atoms: _257  and  _258
REMARK  107  A    between atoms: _258  and  _259
REMARK  108  A    between atoms: _259  and  _260
REMARK  109  A    between atoms: _269  and  _271
REMARK  110  A    between atoms: _271  and  _272
REMARK  111  A    between atoms: _271  and  _274
REMARK  112  A    between atoms: _274  and  _275
REMARK  113  A    between atoms: _278  and  _280
REMARK  114  A    between atoms: _280  and  _281
REMARK  115  A    between atoms: _280  and  _283
REMARK  116  A    between atoms: _283  and  _284
REMARK  117  A    between atoms: _287  and  _289
REMARK  118  A    between atoms: _289  and  _290
REMARK  119  A    between atoms: _289  and  _292
REMARK  120  A    between atoms: _292  and  _293
REMARK  121  A    between atoms: _296  and  _298
REMARK  122  A    between atoms: _298  and  _299
REMARK  123  A    between atoms: _298  and  _301
REMARK  124  A    between atoms: _301  and  _302
REMARK  125  A    between atoms: _305  and  _307
REMARK  126  A    between atoms: _307  and  _308
REMARK  127  A    between atoms: _310  and  _312
REMARK  128  A    between atoms: _312  and  _313
REMARK  129  A    between atoms: _316  and  _318
REMARK  130  A    between atoms: _318  and  _319
REMARK  131  A    between atoms: _318  and  _321
REMARK  132  A    between atoms: _321  and  _322
REMARK  133  A    between atoms: _325  and  _327
REMARK  134  A    between atoms: _327  and  _328
REMARK  135  A    between atoms: _327  and  _330
REMARK  136  A    between atoms: _330  and  _331
REMARK  137  A    between atoms: _334  and  _336
REMARK  138  A    between atoms: _336  and  _337
REMARK  139  A    between atoms: _336  and  _339
REMARK  140  A    between atoms: _339  and  _340
REMARK  141  A    between atoms: _343  and  _345
REMARK  142  A    between atoms: _345  and  _346
REMARK  143  A    between atoms: _345  and  _348
REMARK  144  A    between atoms: _351  and  _353
REMARK  145  A    between atoms: _353  and  _354
REMARK  146  A    between atoms: _353  and  _356
REMARK  147  A    between atoms: _356  and  _357
REMARK  148  A    between atoms: _357  and  _358
REMARK  149  A    between atoms: _358  and  _359
REMARK  150  A    between atoms: _359  and  _360
REMARK  151  A    between atoms: _364  and  _366
REMARK  152  A    between atoms: _366  and  _367
REMARK  153  A    between atoms: _366  and  _369
REMARK  154  A    between atoms: _369  and  _370
REMARK  155  A    between atoms: _370  and  _371
REMARK  156  A    between atoms: _373  and  _375
REMARK  157  A    between atoms: _375  and  _376
REMARK  158  A    between atoms: _375  and  _378
REMARK  159  A    between atoms: _378  and  _379
REMARK  160  A    between atoms: _382  and  _384
REMARK  161  A    between atoms: _384  and  _385
REMARK  162  A    between atoms: _387  and  _389
REMARK  163  A    between atoms: _389  and  _390
REMARK  164  A    between atoms: _392  and  _394
REMARK  165  A    between atoms: _394  and  _395
REMARK  166  A    between atoms: _394  and  _397
REMARK  167  A    between atoms: _397  and  _398
REMARK  168  A    between atoms: _401  and  _403
REMARK  169  A    between atoms: _403  and  _404
REMARK  170  A    between atoms: _406  and  _408
REMARK  171  A    between atoms: _408  and  _409
REMARK  172  A    between atoms: _411  and  _413
REMARK  173  A    between atoms: _413  and  _414
REMARK  174  A    between atoms: _413  and  _416
REMARK  175  A    between atoms: _416  and  _417
REMARK  176  A    between atoms: _423  and  _425
REMARK  177  A    between atoms: _425  and  _426
REMARK  178  A    between atoms: _425  and  _428
REMARK  179  A    between atoms: _428  and  _429
REMARK  180  A    between atoms: _432  and  _434
REMARK  181  A    between atoms: _434  and  _435
REMARK  182  A    between atoms: _434  and  _437
REMARK  183  A    between atoms: _440  and  _442
REMARK  184  A    between atoms: _442  and  _443
REMARK  185  A    between atoms: _442  and  _445
REMARK  186  A    between atoms: _445  and  _446
REMARK  187  A    between atoms: _450  and  _451
REMARK  188  A    between atoms: _456  and  _458
REMARK  189  A    between atoms: _458  and  _459
REMARK  190  A    between atoms: _458  and  _461
REMARK  191  A    between atoms: _461  and  _462
REMARK  192  A    between atoms: _466  and  _467
REMARK  193  A    between atoms: _472  and  _474
REMARK  194  A    between atoms: _474  and  _475
REMARK  195  A    between atoms: _474  and  _477
REMARK  196  A    between atoms: _480  and  _482
REMARK  197  A    between atoms: _482  and  _483
REMARK  198  A    between atoms: _482  and  _485
REMARK  199  A    between atoms: _485  and  _486
REMARK  200  A    between atoms: _491  and  _493
REMARK  201  A    between atoms: _493  and  _494
REMARK  202  A    between atoms: _493  and  _496
REMARK  203  A    between atoms: _496  and  _497
REMARK  204  A    between atoms: _500  and  _502
REMARK  205  A    between atoms: _502  and  _503
REMARK  206  A    between atoms: _502  and  _505
REMARK  207  A    between atoms: _505  and  _506
REMARK  208  A    between atoms: _509  and  _511
REMARK  209  A    between atoms: _511  and  _512
REMARK  210  A    between atoms: _514  and  _516
REMARK  211  A    between atoms: _516  and  _517
REMARK  212  A    between atoms: _516  and  _519
REMARK  213  A    between atoms: _519  and  _520
REMARK  214  A    between atoms: _520  and  _521
REMARK  215  A    between atoms: _521  and  _522
REMARK  216  A    between atoms: _531  and  _533
REMARK  217  A    between atoms: _533  and  _534
REMARK  218  A    between atoms: _533  and  _536
REMARK  219  A    between atoms: _536  and  _537
REMARK                            x       y       z     vdW  Elec       q    Type
REMARK                         _______ _______ _______ _____ _____    ______ ____
ROOT
ATOM      1  O   HOH     1      15.858  39.959  18.372  0.00  0.00    +0.000 OA
ENDROOT
TORSDOF 0
