REMARK  Name = ../refined-set-2016/1rmz/1rmz_pocket.pdb
REMARK  160 active torsions:
REMARK  status: ('A' for Active; 'I' for Inactive)
REMARK    1  A    between atoms: _1  and  _3
REMARK    2  A    between atoms: _3  and  _4
REMARK    3  A    between atoms: _3  and  _6
REMARK    4  A    between atoms: _6  and  _7
REMARK    5  A    between atoms: _13  and  _15
REMARK    6  A    between atoms: _15  and  _16
REMARK    7  A    between atoms: _15  and  _18
REMARK    8  A    between atoms: _18  and  _19
REMARK    9  A    between atoms: _22  and  _24
REMARK   10  A    between atoms: _24  and  _25
REMARK   11  A    between atoms: _27  and  _29
REMARK   12  A    between atoms: _29  and  _30
REMARK   13  A    between atoms: _32  and  _34
REMARK   14  A    between atoms: _34  and  _35
REMARK   15  A    between atoms: _34  and  _37
REMARK   16  A    between atoms: _35  and  _36
REMARK   17  A    between atoms: _35  and  _41
REMARK   18  A    between atoms: _36  and  CA_395
REMARK   19  A    between atoms: _37  and  _38
REMARK   20  A    between atoms: _41  and  _43
REMARK   21  A    between atoms: _43  and  _44
REMARK   22  A    between atoms: _43  and  _46
REMARK   23  A    between atoms: _46  and  _47
REMARK   24  A    between atoms: _50  and  _52
REMARK   25  A    between atoms: _52  and  _53
REMARK   26  A    between atoms: _56  and  _58
REMARK   27  A    between atoms: _58  and  _59
REMARK   28  A    between atoms: _58  and  _61
REMARK   29  A    between atoms: _61  and  _62
REMARK   30  A    between atoms: _67  and  _69
REMARK   31  A    between atoms: _69  and  _70
REMARK   32  A    between atoms: _73  and  _75
REMARK   33  A    between atoms: _75  and  _76
REMARK   34  A    between atoms: _75  and  _78
REMARK   35  A    between atoms: _78  and  _79
REMARK   36  A    between atoms: _85  and  _87
REMARK   37  A    between atoms: _87  and  _88
REMARK   38  A    between atoms: _87  and  _90
REMARK   39  A    between atoms: _90  and  _91
REMARK   40  A    between atoms: _96  and  _98
REMARK   41  A    between atoms: _98  and  _99
REMARK   42  A    between atoms: _98  and  _101
REMARK   43  A    between atoms: _101  and  _102
REMARK   44  A    between atoms: _108  and  _110
REMARK   45  A    between atoms: _110  and  _111
REMARK   46  A    between atoms: _110  and  _113
REMARK   47  A    between atoms: _113  and  _114
REMARK   48  A    between atoms: _117  and  _119
REMARK   49  A    between atoms: _119  and  _120
REMARK   50  A    between atoms: _119  and  _122
REMARK   51  A    between atoms: _122  and  _123
REMARK   52  A    between atoms: _123  and  _124
REMARK   53  A    between atoms: _124  and  _126
REMARK   54  A    between atoms: _126  and  CA_395
REMARK   55  A    between atoms: _127  and  _129
REMARK   56  A    between atoms: _129  and  _130
REMARK   57  A    between atoms: _129  and  _132
REMARK   58  A    between atoms: _132  and  _133
REMARK   59  A    between atoms: _143  and  _145
REMARK   60  A    between atoms: _145  and  _146
REMARK   61  A    between atoms: _145  and  _148
REMARK   62  A    between atoms: _148  and  _149
REMARK   63  A    between atoms: _152  and  _154
REMARK   64  A    between atoms: _154  and  _155
REMARK   65  A    between atoms: _154  and  _157
REMARK   66  A    between atoms: _157  and  _158
REMARK   67  A    between atoms: _163  and  _165
REMARK   68  A    between atoms: _165  and  _166
REMARK   69  A    between atoms: _165  and  _168
REMARK   70  A    between atoms: _168  and  _169
REMARK   71  A    between atoms: _172  and  _174
REMARK   72  A    between atoms: _174  and  _175
REMARK   73  A    between atoms: _174  and  _177
REMARK   74  A    between atoms: _177  and  _178
REMARK   75  A    between atoms: _184  and  _186
REMARK   76  A    between atoms: _186  and  _187
REMARK   77  A    between atoms: _186  and  _189
REMARK   78  A    between atoms: _189  and  _190
REMARK   79  A    between atoms: _193  and  _195
REMARK   80  A    between atoms: _195  and  _196
REMARK   81  A    between atoms: _195  and  _198
REMARK   82  A    between atoms: _198  and  _199
REMARK   83  A    between atoms: _202  and  _204
REMARK   84  A    between atoms: _204  and  _205
REMARK   85  A    between atoms: _208  and  _210
REMARK   86  A    between atoms: _210  and  _211
REMARK   87  A    between atoms: _210  and  _213
REMARK   88  A    between atoms: _216  and  _218
REMARK   89  A    between atoms: _218  and  _219
REMARK   90  A    between atoms: _218  and  _221
REMARK   91  A    between atoms: _221  and  _222
REMARK   92  A    between atoms: _226  and  ZN_394
REMARK   93  A    between atoms: _229  and  _230
REMARK   94  A    between atoms: _229  and  _232
REMARK   95  A    between atoms: _232  and  _233
REMARK   96  A    between atoms: _233  and  _234
REMARK   97  A    between atoms: _237  and  _239
REMARK   98  A    between atoms: _239  and  _240
REMARK   99  A    between atoms: _239  and  _242
REMARK  100  A    between atoms: _242  and  _243
REMARK  101  A    between atoms: _246  and  _248
REMARK  102  A    between atoms: _248  and  _249
REMARK  103  A    between atoms: _248  and  _251
REMARK  104  A    between atoms: _251  and  _252
REMARK  105  A    between atoms: _256  and  ZN_394
REMARK  106  A    between atoms: _257  and  _259
REMARK  107  A    between atoms: _259  and  _260
REMARK  108  A    between atoms: _259  and  _262
REMARK  109  A    between atoms: _262  and  _263
REMARK  110  A    between atoms: _265  and  _267
REMARK  111  A    between atoms: _267  and  _268
REMARK  112  A    between atoms: _267  and  _270
REMARK  113  A    between atoms: _270  and  _271
REMARK  114  A    between atoms: _274  and  _276
REMARK  115  A    between atoms: _276  and  _277
REMARK  116  A    between atoms: _279  and  _281
REMARK  117  A    between atoms: _281  and  _282
REMARK  118  A    between atoms: _281  and  _284
REMARK  119  A    between atoms: _284  and  _285
REMARK  120  A    between atoms: _289  and  ZN_394
REMARK  121  A    between atoms: _290  and  _292
REMARK  122  A    between atoms: _292  and  _293
REMARK  123  A    between atoms: _296  and  _298
REMARK  124  A    between atoms: _298  and  _299
REMARK  125  A    between atoms: _298  and  _301
REMARK  126  A    between atoms: _304  and  _306
REMARK  127  A    between atoms: _306  and  _307
REMARK  128  A    between atoms: _306  and  _309
REMARK  129  A    between atoms: _309  and  _310
REMARK  130  A    between atoms: _310  and  _311
REMARK  131  A    between atoms: _313  and  _315
REMARK  132  A    between atoms: _315  and  _316
REMARK  133  A    between atoms: _315  and  _318
REMARK  134  A    between atoms: _318  and  _319
REMARK  135  A    between atoms: _326  and  _327
REMARK  136  A    between atoms: _332  and  _334
REMARK  137  A    between atoms: _334  and  _335
REMARK  138  A    between atoms: _334  and  _337
REMARK  139  A    between atoms: _337  and  _338
REMARK  140  A    between atoms: _341  and  _343
REMARK  141  A    between atoms: _343  and  _344
REMARK  142  A    between atoms: _343  and  _346
REMARK  143  A    between atoms: _346  and  _347
REMARK  144  A    between atoms: _352  and  _353
REMARK  145  A    between atoms: _355  and  _357
REMARK  146  A    between atoms: _357  and  _358
REMARK  147  A    between atoms: _357  and  _360
REMARK  148  A    between atoms: _360  and  _361
REMARK  149  A    between atoms: _361  and  _362
REMARK  150  A    between atoms: _362  and  _363
REMARK  151  A    between atoms: _363  and  _364
REMARK  152  A    between atoms: _368  and  _370
REMARK  153  A    between atoms: _370  and  _371
REMARK  154  A    between atoms: _370  and  _373
REMARK  155  A    between atoms: _373  and  _374
REMARK  156  A    between atoms: _379  and  _380
REMARK  157  A    between atoms: _382  and  _384
REMARK  158  A    between atoms: _384  and  _385
REMARK  159  A    between atoms: _384  and  _387
REMARK  160  A    between atoms: _387  and  _388
REMARK                            x       y       z     vdW  Elec       q    Type
REMARK                         _______ _______ _______ _____ _____    ______ ____
ROOT
ATOM      1  C   PHE A   1      19.259  28.100   3.953  0.00  0.00    +0.239 C 
ATOM      2  N   ASP A   2      18.524  28.609   4.939  0.00  0.00    -0.298 N 
ATOM      3  H   ASP A   2      17.852  27.988   5.434  0.00  0.00    +0.150 HD
ATOM      4  O   PHE A   1      20.351  28.558   3.613  0.00  0.00    -0.274 OA
ENDROOT
BRANCH   1   5
ATOM      5  CA  PHE A   1      18.665  26.872   3.264  0.00  0.00    +0.149 C 
BRANCH   5   6
ATOM      6  N   PHE A   1      19.452  26.515   2.094  0.00  0.00    -0.238 NA
ATOM      7  H   PHE A   1      20.082  25.690   2.151  0.00  0.00    +0.142 HD
ENDBRANCH   5   6
BRANCH   5   8
ATOM      8  CB  PHE A   1      18.598  25.685   4.228  0.00  0.00    +0.053 C 
BRANCH   8   9
ATOM      9  CG  PHE A   1      17.690  24.552   3.770  0.00  0.00    -0.020 A 
ATOM     10  CD2 PHE A   1      18.102  23.231   3.925  0.00  0.00    -0.004 A 
ATOM     11  CE2 PHE A   1      17.296  22.185   3.548  0.00  0.00    -0.000 A 
ATOM     12  CZ  PHE A   1      16.051  22.435   3.025  0.00  0.00    -0.000 A 
ATOM     13  CE1 PHE A   1      15.609  23.747   2.860  0.00  0.00    -0.000 A 
ATOM     14  CD1 PHE A   1      16.430  24.795   3.225  0.00  0.00    -0.004 A 
ENDBRANCH   8   9
ENDBRANCH   5   8
ENDBRANCH   1   5
BRANCH   2  15
ATOM     15  CA  ASP A   2      18.625  29.998   5.350  0.00  0.00    +0.148 C 
BRANCH  15  16
ATOM     16  C   ASP A   2      18.701  30.128   6.869  0.00  0.00    +0.227 C 
ATOM     17  O   ASP A   2      18.385  31.192   7.410  0.00  0.00    -0.286 OA
ENDBRANCH  15  16
BRANCH  15  18
ATOM     18  CB  ASP A   2      17.393  30.785   4.845  0.00  0.00    +0.142 C 
BRANCH  18  19
ATOM     19  CG  ASP A   2      16.099  30.248   5.399  0.00  0.00    +0.367 C 
ATOM     20  OD2 ASP A   2      16.030  29.163   6.011  0.00  0.00    -0.246 OA
ATOM     21  OD1 ASP A   2      15.053  30.924   5.278  0.00  0.00    -0.246 OA
ENDBRANCH  18  19
ENDBRANCH  15  18
ENDBRANCH   2  15
TORSDOF 8
REMARK  Name = ../refined-set-2016/1rmz/1rmz_pocket.pdb
REMARK  160 active torsions:
REMARK  status: ('A' for Active; 'I' for Inactive)
REMARK    1  A    between atoms: _1  and  _3
REMARK    2  A    between atoms: _3  and  _4
REMARK    3  A    between atoms: _3  and  _6
REMARK    4  A    between atoms: _6  and  _7
REMARK    5  A    between atoms: _13  and  _15
REMARK    6  A    between atoms: _15  and  _16
REMARK    7  A    between atoms: _15  and  _18
REMARK    8  A    between atoms: _18  and  _19
REMARK    9  A    between atoms: _22  and  _24
REMARK   10  A    between atoms: _24  and  _25
REMARK   11  A    between atoms: _27  and  _29
REMARK   12  A    between atoms: _29  and  _30
REMARK   13  A    between atoms: _32  and  _34
REMARK   14  A    between atoms: _34  and  _35
REMARK   15  A    between atoms: _34  and  _37
REMARK   16  A    between atoms: _35  and  _36
REMARK   17  A    between atoms: _35  and  _41
REMARK   18  A    between atoms: _36  and  CA_395
REMARK   19  A    between atoms: _37  and  _38
REMARK   20  A    between atoms: _41  and  _43
REMARK   21  A    between atoms: _43  and  _44
REMARK   22  A    between atoms: _43  and  _46
REMARK   23  A    between atoms: _46  and  _47
REMARK   24  A    between atoms: _50  and  _52
REMARK   25  A    between atoms: _52  and  _53
REMARK   26  A    between atoms: _56  and  _58
REMARK   27  A    between atoms: _58  and  _59
REMARK   28  A    between atoms: _58  and  _61
REMARK   29  A    between atoms: _61  and  _62
REMARK   30  A    between atoms: _67  and  _69
REMARK   31  A    between atoms: _69  and  _70
REMARK   32  A    between atoms: _73  and  _75
REMARK   33  A    between atoms: _75  and  _76
REMARK   34  A    between atoms: _75  and  _78
REMARK   35  A    between atoms: _78  and  _79
REMARK   36  A    between atoms: _85  and  _87
REMARK   37  A    between atoms: _87  and  _88
REMARK   38  A    between atoms: _87  and  _90
REMARK   39  A    between atoms: _90  and  _91
REMARK   40  A    between atoms: _96  and  _98
REMARK   41  A    between atoms: _98  and  _99
REMARK   42  A    between atoms: _98  and  _101
REMARK   43  A    between atoms: _101  and  _102
REMARK   44  A    between atoms: _108  and  _110
REMARK   45  A    between atoms: _110  and  _111
REMARK   46  A    between atoms: _110  and  _113
REMARK   47  A    between atoms: _113  and  _114
REMARK   48  A    between atoms: _117  and  _119
REMARK   49  A    between atoms: _119  and  _120
REMARK   50  A    between atoms: _119  and  _122
REMARK   51  A    between atoms: _122  and  _123
REMARK   52  A    between atoms: _123  and  _124
REMARK   53  A    between atoms: _124  and  _126
REMARK   54  A    between atoms: _126  and  CA_395
REMARK   55  A    between atoms: _127  and  _129
REMARK   56  A    between atoms: _129  and  _130
REMARK   57  A    between atoms: _129  and  _132
REMARK   58  A    between atoms: _132  and  _133
REMARK   59  A    between atoms: _143  and  _145
REMARK   60  A    between atoms: _145  and  _146
REMARK   61  A    between atoms: _145  and  _148
REMARK   62  A    between atoms: _148  and  _149
REMARK   63  A    between atoms: _152  and  _154
REMARK   64  A    between atoms: _154  and  _155
REMARK   65  A    between atoms: _154  and  _157
REMARK   66  A    between atoms: _157  and  _158
REMARK   67  A    between atoms: _163  and  _165
REMARK   68  A    between atoms: _165  and  _166
REMARK   69  A    between atoms: _165  and  _168
REMARK   70  A    between atoms: _168  and  _169
REMARK   71  A    between atoms: _172  and  _174
REMARK   72  A    between atoms: _174  and  _175
REMARK   73  A    between atoms: _174  and  _177
REMARK   74  A    between atoms: _177  and  _178
REMARK   75  A    between atoms: _184  and  _186
REMARK   76  A    between atoms: _186  and  _187
REMARK   77  A    between atoms: _186  and  _189
REMARK   78  A    between atoms: _189  and  _190
REMARK   79  A    between atoms: _193  and  _195
REMARK   80  A    between atoms: _195  and  _196
REMARK   81  A    between atoms: _195  and  _198
REMARK   82  A    between atoms: _198  and  _199
REMARK   83  A    between atoms: _202  and  _204
REMARK   84  A    between atoms: _204  and  _205
REMARK   85  A    between atoms: _208  and  _210
REMARK   86  A    between atoms: _210  and  _211
REMARK   87  A    between atoms: _210  and  _213
REMARK   88  A    between atoms: _216  and  _218
REMARK   89  A    between atoms: _218  and  _219
REMARK   90  A    between atoms: _218  and  _221
REMARK   91  A    between atoms: _221  and  _222
REMARK   92  A    between atoms: _226  and  ZN_394
REMARK   93  A    between atoms: _229  and  _230
REMARK   94  A    between atoms: _229  and  _232
REMARK   95  A    between atoms: _232  and  _233
REMARK   96  A    between atoms: _233  and  _234
REMARK   97  A    between atoms: _237  and  _239
REMARK   98  A    between atoms: _239  and  _240
REMARK   99  A    between atoms: _239  and  _242
REMARK  100  A    between atoms: _242  and  _243
REMARK  101  A    between atoms: _246  and  _248
REMARK  102  A    between atoms: _248  and  _249
REMARK  103  A    between atoms: _248  and  _251
REMARK  104  A    between atoms: _251  and  _252
REMARK  105  A    between atoms: _256  and  ZN_394
REMARK  106  A    between atoms: _257  and  _259
REMARK  107  A    between atoms: _259  and  _260
REMARK  108  A    between atoms: _259  and  _262
REMARK  109  A    between atoms: _262  and  _263
REMARK  110  A    between atoms: _265  and  _267
REMARK  111  A    between atoms: _267  and  _268
REMARK  112  A    between atoms: _267  and  _270
REMARK  113  A    between atoms: _270  and  _271
REMARK  114  A    between atoms: _274  and  _276
REMARK  115  A    between atoms: _276  and  _277
REMARK  116  A    between atoms: _279  and  _281
REMARK  117  A    between atoms: _281  and  _282
REMARK  118  A    between atoms: _281  and  _284
REMARK  119  A    between atoms: _284  and  _285
REMARK  120  A    between atoms: _289  and  ZN_394
REMARK  121  A    between atoms: _290  and  _292
REMARK  122  A    between atoms: _292  and  _293
REMARK  123  A    between atoms: _296  and  _298
REMARK  124  A    between atoms: _298  and  _299
REMARK  125  A    between atoms: _298  and  _301
REMARK  126  A    between atoms: _304  and  _306
REMARK  127  A    between atoms: _306  and  _307
REMARK  128  A    between atoms: _306  and  _309
REMARK  129  A    between atoms: _309  and  _310
REMARK  130  A    between atoms: _310  and  _311
REMARK  131  A    between atoms: _313  and  _315
REMARK  132  A    between atoms: _315  and  _316
REMARK  133  A    between atoms: _315  and  _318
REMARK  134  A    between atoms: _318  and  _319
REMARK  135  A    between atoms: _326  and  _327
REMARK  136  A    between atoms: _332  and  _334
REMARK  137  A    between atoms: _334  and  _335
REMARK  138  A    between atoms: _334  and  _337
REMARK  139  A    between atoms: _337  and  _338
REMARK  140  A    between atoms: _341  and  _343
REMARK  141  A    between atoms: _343  and  _344
REMARK  142  A    between atoms: _343  and  _346
REMARK  143  A    between atoms: _346  and  _347
REMARK  144  A    between atoms: _352  and  _353
REMARK  145  A    between atoms: _355  and  _357
REMARK  146  A    between atoms: _357  and  _358
REMARK  147  A    between atoms: _357  and  _360
REMARK  148  A    between atoms: _360  and  _361
REMARK  149  A    between atoms: _361  and  _362
REMARK  150  A    between atoms: _362  and  _363
REMARK  151  A    between atoms: _363  and  _364
REMARK  152  A    between atoms: _368  and  _370
REMARK  153  A    between atoms: _370  and  _371
REMARK  154  A    between atoms: _370  and  _373
REMARK  155  A    between atoms: _373  and  _374
REMARK  156  A    between atoms: _379  and  _380
REMARK  157  A    between atoms: _382  and  _384
REMARK  158  A    between atoms: _384  and  _385
REMARK  159  A    between atoms: _384  and  _387
REMARK  160  A    between atoms: _387  and  _388
REMARK                            x       y       z     vdW  Elec       q    Type
REMARK                         _______ _______ _______ _____ _____    ______ ____
ROOT
ATOM      1  C   UNK A   1      11.817  24.887   6.684  0.00  0.00    +0.000 C 
ENDROOT
BRANCH   1   2
ATOM      2  C   UNK A   1      12.267  23.648   5.932  0.00  0.00    +0.000 C 
ATOM      3  O   UNK A   1      12.866  22.751   6.509  0.00  0.00    +0.000 OA
ATOM      4  N   ALA A   2      11.898  23.566   4.662  0.00  0.00    +0.000 N 
ATOM      5  H   ALA A   2      11.470  24.398   4.208  0.00  0.00    +0.000 HD
BRANCH   4   6
ATOM      6  CA  ALA A   2      12.071  22.353   3.884  0.00  0.00    +0.000 C 
ATOM      7  CB  ALA A   2      11.185  21.231   4.406  0.00  0.00    +0.000 C 
BRANCH   6   8
ATOM      8  C   ALA A   2      11.720  22.691   2.448  0.00  0.00    +0.000 C 
ATOM      9  O   ALA A   2      11.031  23.669   2.210  0.00  0.00    +0.000 OA
ATOM     10  N   HIS A   3      12.187  21.883   1.499  0.00  0.00    +0.000 N 
ATOM     11  H   HIS A   3      12.883  21.159   1.768  0.00  0.00    +0.000 HD
BRANCH  10  12
ATOM     12  CA  HIS A   3      11.776  21.959   0.107  0.00  0.00    +0.000 C 
BRANCH  12  13
ATOM     13  C   HIS A   3      11.936  20.597  -0.505  0.00  0.00    +0.000 C 
ATOM     14  O   HIS A   3      12.670  19.758  -0.007  0.00  0.00    +0.000 OA
ATOM     15  N   ALA A   4      11.254  20.396  -1.614  0.00  0.00    +0.000 N 
ATOM     16  H   ALA A   4      10.682  21.181  -1.986  0.00  0.00    +0.000 HD
BRANCH  15  17
ATOM     17  CA  ALA A   4      11.255  19.117  -2.361  0.00  0.00    +0.000 C 
ATOM     18  CB  ALA A   4      10.174  18.194  -1.885  0.00  0.00    +0.000 C 
BRANCH  17  19
ATOM     19  C   ALA A   4      11.128  19.314  -3.852  0.00  0.00    +0.000 C 
ATOM     20  O   ALA A   4      10.608  20.319  -4.291  0.00  0.00    +0.000 OA
ATOM     21  N   PHE A   5      11.681  18.376  -4.589  0.00  0.00    +0.000 N 
ATOM     22  H   PHE A   5      12.124  17.568  -4.106  0.00  0.00    +0.000 HD
BRANCH  21  23
ATOM     23  CA  PHE A   5      11.706  18.407  -6.038  0.00  0.00    +0.000 C 
BRANCH  23  24
ATOM     24  C   PHE A   5      10.606  17.504  -6.538  0.00  0.00    +0.000 C 
ATOM     25  O   PHE A   5      10.352  16.439  -5.961  0.00  0.00    +0.000 OA
ENDBRANCH  23  24
BRANCH  23  26
ATOM     26  CB  PHE A   5      13.055  17.883  -6.476  0.00  0.00    +0.000 C 
BRANCH  26  27
ATOM     27  CG  PHE A   5      14.189  18.783  -6.096  0.00  0.00    +0.000 A 
ATOM     28  CD2 PHE A   5      14.814  18.638  -4.882  0.00  0.00    +0.000 A 
ATOM     29  CE2 PHE A   5      15.841  19.489  -4.512  0.00  0.00    +0.000 A 
ATOM     30  CZ  PHE A   5      16.257  20.503  -5.343  0.00  0.00    +0.000 A 
ATOM     31  CE1 PHE A   5      15.659  20.672  -6.558  0.00  0.00    +0.000 A 
ATOM     32  CD1 PHE A   5      14.614  19.820  -6.948  0.00  0.00    +0.000 A 
ENDBRANCH  26  27
ENDBRANCH  23  26
ENDBRANCH  21  23
ENDBRANCH  17  19
ENDBRANCH  15  17
ENDBRANCH  12  13
BRANCH  12  33
ATOM     33  CB  HIS A   3      12.543  23.074  -0.611  0.00  0.00    +0.000 C 
BRANCH  33  34
ATOM     34  CG  HIS A   3      14.019  22.884  -0.688  0.00  0.00    +0.000 A 
ATOM     35  ND1 HIS A   3      14.894  23.949  -0.646  0.00  0.00    +0.000 NA
ATOM     36  CE1 HIS A   3      16.131  23.496  -0.759  0.00  0.00    +0.000 A 
ATOM     37  NE2 HIS A   3      16.091  22.180  -0.865  0.00  0.00    +0.000 NA
ATOM     38  CD2 HIS A   3      14.786  21.770  -0.748  0.00  0.00    +0.000 A 
ENDBRANCH  33  34
ENDBRANCH  12  33
ENDBRANCH  10  12
ENDBRANCH   6   8
ENDBRANCH   4   6
ENDBRANCH   1   2
BRANCH   1  39
ATOM     39  N   UNK A   1      11.678  26.061   5.826  0.00  0.00    +0.000 NA
ATOM     40  H   UNK A   1      10.786  26.187   5.306  0.00  0.00    +0.000 HD
BRANCH  39  41
ATOM     41  C   UNK A   0      12.626  26.975   5.674  0.00  0.00    +0.000 C 
BRANCH  41  42
ATOM     42  O   UNK A   0      13.735  26.888   6.185  0.00  0.00    +0.000 OA
BRANCH  42  43
ATOM     43 CA   UNK A   1      15.344  27.676   7.641  0.00  0.00    +0.000 Ca
BRANCH  43  44
ATOM     44  O   UNK A   1      14.529  26.250   9.220  0.00  0.00    +0.000 OA
BRANCH  44  45
ATOM     45  C   UNK A   1      14.027  25.737  10.243  0.00  0.00    +0.000 C 
ATOM     46  O   UNK A   1      13.767  26.408  11.276  0.00  0.00    +0.000 OA
BRANCH  45  47
ATOM     47  C   UNK A   1      13.723  24.257  10.238  0.00  0.00    +0.000 C 
BRANCH  47  48
ATOM     48  C   UNK A   1      13.775  23.589  11.605  0.00  0.00    +0.000 C 
BRANCH  48  49
ATOM     49  C   UNK A   1      14.993  23.943  12.454  0.00  0.00    +0.000 C 
BRANCH  49  50
ATOM     50  N   UNK A   1      16.225  24.045  11.687  0.00  0.00    +0.000 NA
ATOM     51  H   UNK A   1      16.285  23.570  10.764  0.00  0.00    +0.000 HD
ENDBRANCH  49  50
BRANCH  49  52
ATOM     52  C   UNK A   1      15.145  22.890  13.542  0.00  0.00    +0.000 C 
ATOM     53  O   UNK A   1      16.030  22.016  13.467  0.00  0.00    +0.000 OA
ENDBRANCH  49  52
ENDBRANCH  48  49
ENDBRANCH  47  48
ENDBRANCH  45  47
ENDBRANCH  44  45
ENDBRANCH  43  44
ENDBRANCH  42  43
ENDBRANCH  41  42
BRANCH  41  54
ATOM     54  C   UNK A   0      12.297  28.163   4.799  0.00  0.00    +0.000 C 
BRANCH  54  57
ATOM     55  C   UNK A   0      11.814  29.793   6.531  0.00  0.00    +0.000 C 
ATOM     56  O   UNK A   0      10.829  29.172   6.893  0.00  0.00    +0.000 OA
ATOM     57  N   UNK A   0      12.573  29.409   5.516  0.00  0.00    +0.000 N 
ATOM     58  H   UNK A   0      13.377  30.001   5.224  0.00  0.00    +0.000 HD
BRANCH  55  59
ATOM     59  C   UNK A   0      12.240  31.088   7.191  0.00  0.00    +0.000 C 
BRANCH  59  61
ATOM     60  C   UNK A   0      13.163  30.023   9.154  0.00  0.00    +0.000 C 
ATOM     61  N   UNK A   0      12.348  30.928   8.626  0.00  0.00    +0.000 N 
ATOM     62  H   UNK A   0      11.778  31.531   9.253  0.00  0.00    +0.000 HD
ATOM     63  O   UNK A   0      13.873  29.294   8.449  0.00  0.00    +0.000 OA
BRANCH  60  64
ATOM     64  C   UNK A   0      13.149  29.912  10.674  0.00  0.00    +0.000 C 
BRANCH  64  65
ATOM     65  N   UNK A   0      14.314  29.198  11.161  0.00  0.00    +0.000 NA
ATOM     66  H   UNK A   0      14.211  28.202  11.441  0.00  0.00    +0.000 HD
ENDBRANCH  64  65
ENDBRANCH  60  64
ENDBRANCH  59  61
ENDBRANCH  55  59
ENDBRANCH  54  57
BRANCH  54  67
ATOM     67  C   UNK A   0      13.120  28.100   3.483  0.00  0.00    +0.000 C 
ATOM     68  C   UNK A   0      12.974  26.694   2.824  0.00  0.00    +0.000 C 
BRANCH  67  69
ATOM     69  C   UNK A   0      12.736  29.225   2.523  0.00  0.00    +0.000 C 
ATOM     70  C   UNK A   0      11.329  29.100   1.960  0.00  0.00    +0.000 C 
ENDBRANCH  67  69
ENDBRANCH  54  67
ENDBRANCH  41  54
ENDBRANCH  39  41
ENDBRANCH   1  39
BRANCH   1  71
ATOM     71  C   UNK A   1      10.469  24.548   7.334  0.00  0.00    +0.000 C 
BRANCH  71  72
ATOM     72  C   UNK A   1       9.791  25.726   8.037  0.00  0.00    +0.000 C 
ATOM     73  C   UNK A   1      10.642  26.201   9.203  0.00  0.00    +0.000 C 
ATOM     74  C   UNK A   1       8.394  25.357   8.514  0.00  0.00    +0.000 C 
ENDBRANCH  71  72
ENDBRANCH   1  71
TORSDOF 34
REMARK  Name = ../refined-set-2016/1rmz/1rmz_pocket.pdb
REMARK  160 active torsions:
REMARK  status: ('A' for Active; 'I' for Inactive)
REMARK    1  A    between atoms: _1  and  _3
REMARK    2  A    between atoms: _3  and  _4
REMARK    3  A    between atoms: _3  and  _6
REMARK    4  A    between atoms: _6  and  _7
REMARK    5  A    between atoms: _13  and  _15
REMARK    6  A    between atoms: _15  and  _16
REMARK    7  A    between atoms: _15  and  _18
REMARK    8  A    between atoms: _18  and  _19
REMARK    9  A    between atoms: _22  and  _24
REMARK   10  A    between atoms: _24  and  _25
REMARK   11  A    between atoms: _27  and  _29
REMARK   12  A    between atoms: _29  and  _30
REMARK   13  A    between atoms: _32  and  _34
REMARK   14  A    between atoms: _34  and  _35
REMARK   15  A    between atoms: _34  and  _37
REMARK   16  A    between atoms: _35  and  _36
REMARK   17  A    between atoms: _35  and  _41
REMARK   18  A    between atoms: _36  and  CA_395
REMARK   19  A    between atoms: _37  and  _38
REMARK   20  A    between atoms: _41  and  _43
REMARK   21  A    between atoms: _43  and  _44
REMARK   22  A    between atoms: _43  and  _46
REMARK   23  A    between atoms: _46  and  _47
REMARK   24  A    between atoms: _50  and  _52
REMARK   25  A    between atoms: _52  and  _53
REMARK   26  A    between atoms: _56  and  _58
REMARK   27  A    between atoms: _58  and  _59
REMARK   28  A    between atoms: _58  and  _61
REMARK   29  A    between atoms: _61  and  _62
REMARK   30  A    between atoms: _67  and  _69
REMARK   31  A    between atoms: _69  and  _70
REMARK   32  A    between atoms: _73  and  _75
REMARK   33  A    between atoms: _75  and  _76
REMARK   34  A    between atoms: _75  and  _78
REMARK   35  A    between atoms: _78  and  _79
REMARK   36  A    between atoms: _85  and  _87
REMARK   37  A    between atoms: _87  and  _88
REMARK   38  A    between atoms: _87  and  _90
REMARK   39  A    between atoms: _90  and  _91
REMARK   40  A    between atoms: _96  and  _98
REMARK   41  A    between atoms: _98  and  _99
REMARK   42  A    between atoms: _98  and  _101
REMARK   43  A    between atoms: _101  and  _102
REMARK   44  A    between atoms: _108  and  _110
REMARK   45  A    between atoms: _110  and  _111
REMARK   46  A    between atoms: _110  and  _113
REMARK   47  A    between atoms: _113  and  _114
REMARK   48  A    between atoms: _117  and  _119
REMARK   49  A    between atoms: _119  and  _120
REMARK   50  A    between atoms: _119  and  _122
REMARK   51  A    between atoms: _122  and  _123
REMARK   52  A    between atoms: _123  and  _124
REMARK   53  A    between atoms: _124  and  _126
REMARK   54  A    between atoms: _126  and  CA_395
REMARK   55  A    between atoms: _127  and  _129
REMARK   56  A    between atoms: _129  and  _130
REMARK   57  A    between atoms: _129  and  _132
REMARK   58  A    between atoms: _132  and  _133
REMARK   59  A    between atoms: _143  and  _145
REMARK   60  A    between atoms: _145  and  _146
REMARK   61  A    between atoms: _145  and  _148
REMARK   62  A    between atoms: _148  and  _149
REMARK   63  A    between atoms: _152  and  _154
REMARK   64  A    between atoms: _154  and  _155
REMARK   65  A    between atoms: _154  and  _157
REMARK   66  A    between atoms: _157  and  _158
REMARK   67  A    between atoms: _163  and  _165
REMARK   68  A    between atoms: _165  and  _166
REMARK   69  A    between atoms: _165  and  _168
REMARK   70  A    between atoms: _168  and  _169
REMARK   71  A    between atoms: _172  and  _174
REMARK   72  A    between atoms: _174  and  _175
REMARK   73  A    between atoms: _174  and  _177
REMARK   74  A    between atoms: _177  and  _178
REMARK   75  A    between atoms: _184  and  _186
REMARK   76  A    between atoms: _186  and  _187
REMARK   77  A    between atoms: _186  and  _189
REMARK   78  A    between atoms: _189  and  _190
REMARK   79  A    between atoms: _193  and  _195
REMARK   80  A    between atoms: _195  and  _196
REMARK   81  A    between atoms: _195  and  _198
REMARK   82  A    between atoms: _198  and  _199
REMARK   83  A    between atoms: _202  and  _204
REMARK   84  A    between atoms: _204  and  _205
REMARK   85  A    between atoms: _208  and  _210
REMARK   86  A    between atoms: _210  and  _211
REMARK   87  A    between atoms: _210  and  _213
REMARK   88  A    between atoms: _216  and  _218
REMARK   89  A    between atoms: _218  and  _219
REMARK   90  A    between atoms: _218  and  _221
REMARK   91  A    between atoms: _221  and  _222
REMARK   92  A    between atoms: _226  and  ZN_394
REMARK   93  A    between atoms: _229  and  _230
REMARK   94  A    between atoms: _229  and  _232
REMARK   95  A    between atoms: _232  and  _233
REMARK   96  A    between atoms: _233  and  _234
REMARK   97  A    between atoms: _237  and  _239
REMARK   98  A    between atoms: _239  and  _240
REMARK   99  A    between atoms: _239  and  _242
REMARK  100  A    between atoms: _242  and  _243
REMARK  101  A    between atoms: _246  and  _248
REMARK  102  A    between atoms: _248  and  _249
REMARK  103  A    between atoms: _248  and  _251
REMARK  104  A    between atoms: _251  and  _252
REMARK  105  A    between atoms: _256  and  ZN_394
REMARK  106  A    between atoms: _257  and  _259
REMARK  107  A    between atoms: _259  and  _260
REMARK  108  A    between atoms: _259  and  _262
REMARK  109  A    between atoms: _262  and  _263
REMARK  110  A    between atoms: _265  and  _267
REMARK  111  A    between atoms: _267  and  _268
REMARK  112  A    between atoms: _267  and  _270
REMARK  113  A    between atoms: _270  and  _271
REMARK  114  A    between atoms: _274  and  _276
REMARK  115  A    between atoms: _276  and  _277
REMARK  116  A    between atoms: _279  and  _281
REMARK  117  A    between atoms: _281  and  _282
REMARK  118  A    between atoms: _281  and  _284
REMARK  119  A    between atoms: _284  and  _285
REMARK  120  A    between atoms: _289  and  ZN_394
REMARK  121  A    between atoms: _290  and  _292
REMARK  122  A    between atoms: _292  and  _293
REMARK  123  A    between atoms: _296  and  _298
REMARK  124  A    between atoms: _298  and  _299
REMARK  125  A    between atoms: _298  and  _301
REMARK  126  A    between atoms: _304  and  _306
REMARK  127  A    between atoms: _306  and  _307
REMARK  128  A    between atoms: _306  and  _309
REMARK  129  A    between atoms: _309  and  _310
REMARK  130  A    between atoms: _310  and  _311
REMARK  131  A    between atoms: _313  and  _315
REMARK  132  A    between atoms: _315  and  _316
REMARK  133  A    between atoms: _315  and  _318
REMARK  134  A    between atoms: _318  and  _319
REMARK  135  A    between atoms: _326  and  _327
REMARK  136  A    between atoms: _332  and  _334
REMARK  137  A    between atoms: _334  and  _335
REMARK  138  A    between atoms: _334  and  _337
REMARK  139  A    between atoms: _337  and  _338
REMARK  140  A    between atoms: _341  and  _343
REMARK  141  A    between atoms: _343  and  _344
REMARK  142  A    between atoms: _343  and  _346
REMARK  143  A    between atoms: _346  and  _347
REMARK  144  A    between atoms: _352  and  _353
REMARK  145  A    between atoms: _355  and  _357
REMARK  146  A    between atoms: _357  and  _358
REMARK  147  A    between atoms: _357  and  _360
REMARK  148  A    between atoms: _360  and  _361
REMARK  149  A    between atoms: _361  and  _362
REMARK  150  A    between atoms: _362  and  _363
REMARK  151  A    between atoms: _363  and  _364
REMARK  152  A    between atoms: _368  and  _370
REMARK  153  A    between atoms: _370  and  _371
REMARK  154  A    between atoms: _370  and  _373
REMARK  155  A    between atoms: _373  and  _374
REMARK  156  A    between atoms: _379  and  _380
REMARK  157  A    between atoms: _382  and  _384
REMARK  158  A    between atoms: _384  and  _385
REMARK  159  A    between atoms: _384  and  _387
REMARK  160  A    between atoms: _387  and  _388
REMARK                            x       y       z     vdW  Elec       q    Type
REMARK                         _______ _______ _______ _____ _____    ______ ____
ROOT
ATOM      1  CA  PHE A   2      14.561  19.362   5.629  0.00  0.00    +0.153 C 
ENDROOT
BRANCH   1   3
ATOM      2  C   HIS A   1      14.569  18.970   3.198  0.00  0.00    +0.239 C 
ATOM      3  N   PHE A   2      15.045  18.711   4.425  0.00  0.00    -0.297 N 
ATOM      4  H   PHE A   2      15.803  18.005   4.519  0.00  0.00    +0.150 HD
ATOM      5  O   HIS A   1      13.702  19.844   2.968  0.00  0.00    -0.274 OA
BRANCH   2   6
ATOM      6  CA  HIS A   1      15.127  18.152   2.058  0.00  0.00    +0.151 C 
BRANCH   6   7
ATOM      7  N   HIS A   1      14.065  17.641   1.215  0.00  0.00    -0.238 NA
ATOM      8  H   HIS A   1      13.483  18.325   0.690  0.00  0.00    +0.142 HD
ENDBRANCH   6   7
BRANCH   6   9
ATOM      9  CB  HIS A   1      16.033  19.039   1.265  0.00  0.00    +0.074 C 
BRANCH   9  10
ATOM     10  CG  HIS A   1      16.740  18.340   0.148  0.00  0.00    +0.082 A 
ATOM     11  CD2 HIS A   1      16.873  17.027  -0.174  0.00  0.00    +0.115 A 
ATOM     12  NE2 HIS A   1      17.656  16.961  -1.311  0.00  0.00    -0.221 NA
ATOM     13  CE1 HIS A   1      18.006  18.185  -1.651  0.00  0.00    +0.199 A 
ATOM     14  ND1 HIS A   1      17.461  19.034  -0.796  0.00  0.00    -0.227 NA
ENDBRANCH   9  10
ENDBRANCH   6   9
ENDBRANCH   2   6
ENDBRANCH   1   3
BRANCH   1  15
ATOM     15  C   PHE A   2      15.718  20.148   6.217  0.00  0.00    +0.241 C 
ATOM     16  N   ASP A   3      15.477  21.409   6.586  0.00  0.00    -0.298 N 
ATOM     17  H   ASP A   3      14.509  21.776   6.491  0.00  0.00    +0.150 HD
ATOM     18  O   PHE A   2      16.822  19.616   6.344  0.00  0.00    -0.273 OA
BRANCH  16  19
ATOM     19  CA  ASP A   3      16.508  22.297   7.117  0.00  0.00    +0.148 C 
BRANCH  19  20
ATOM     20  C   ASP A   3      16.860  21.900   8.546  0.00  0.00    +0.227 C 
ATOM     21  O   ASP A   3      16.020  21.989   9.448  0.00  0.00    -0.286 OA
ENDBRANCH  19  20
BRANCH  19  22
ATOM     22  CB  ASP A   3      16.017  23.758   7.062  0.00  0.00    +0.142 C 
BRANCH  22  23
ATOM     23  CG  ASP A   3      17.109  24.756   7.316  0.00  0.00    +0.367 C 
ATOM     24  OD2 ASP A   3      18.254  24.424   7.753  0.00  0.00    -0.246 OA
ATOM     25  OD1 ASP A   3      16.862  25.976   7.075  0.00  0.00    -0.246 OA
ENDBRANCH  22  23
ENDBRANCH  19  22
ENDBRANCH  16  19
ENDBRANCH   1  15
BRANCH   1  26
ATOM     26  CB  PHE A   2      14.035  18.304   6.610  0.00  0.00    +0.055 C 
BRANCH  26  27
ATOM     27  CG  PHE A   2      12.853  17.529   6.079  0.00  0.00    -0.020 A 
ATOM     28  CD2 PHE A   2      11.545  17.926   6.348  0.00  0.00    -0.004 A 
ATOM     29  CE2 PHE A   2      10.470  17.229   5.833  0.00  0.00    -0.000 A 
ATOM     30  CZ  PHE A   2      10.676  16.203   4.926  0.00  0.00    -0.000 A 
ATOM     31  CE1 PHE A   2      11.993  15.839   4.612  0.00  0.00    -0.000 A 
ATOM     32  CD1 PHE A   2      13.052  16.514   5.144  0.00  0.00    -0.004 A 
ENDBRANCH  26  27
ENDBRANCH   1  26
TORSDOF 12
REMARK  Name = ../refined-set-2016/1rmz/1rmz_pocket.pdb
REMARK  160 active torsions:
REMARK  status: ('A' for Active; 'I' for Inactive)
REMARK    1  A    between atoms: _1  and  _3
REMARK    2  A    between atoms: _3  and  _4
REMARK    3  A    between atoms: _3  and  _6
REMARK    4  A    between atoms: _6  and  _7
REMARK    5  A    between atoms: _13  and  _15
REMARK    6  A    between atoms: _15  and  _16
REMARK    7  A    between atoms: _15  and  _18
REMARK    8  A    between atoms: _18  and  _19
REMARK    9  A    between atoms: _22  and  _24
REMARK   10  A    between atoms: _24  and  _25
REMARK   11  A    between atoms: _27  and  _29
REMARK   12  A    between atoms: _29  and  _30
REMARK   13  A    between atoms: _32  and  _34
REMARK   14  A    between atoms: _34  and  _35
REMARK   15  A    between atoms: _34  and  _37
REMARK   16  A    between atoms: _35  and  _36
REMARK   17  A    between atoms: _35  and  _41
REMARK   18  A    between atoms: _36  and  CA_395
REMARK   19  A    between atoms: _37  and  _38
REMARK   20  A    between atoms: _41  and  _43
REMARK   21  A    between atoms: _43  and  _44
REMARK   22  A    between atoms: _43  and  _46
REMARK   23  A    between atoms: _46  and  _47
REMARK   24  A    between atoms: _50  and  _52
REMARK   25  A    between atoms: _52  and  _53
REMARK   26  A    between atoms: _56  and  _58
REMARK   27  A    between atoms: _58  and  _59
REMARK   28  A    between atoms: _58  and  _61
REMARK   29  A    between atoms: _61  and  _62
REMARK   30  A    between atoms: _67  and  _69
REMARK   31  A    between atoms: _69  and  _70
REMARK   32  A    between atoms: _73  and  _75
REMARK   33  A    between atoms: _75  and  _76
REMARK   34  A    between atoms: _75  and  _78
REMARK   35  A    between atoms: _78  and  _79
REMARK   36  A    between atoms: _85  and  _87
REMARK   37  A    between atoms: _87  and  _88
REMARK   38  A    between atoms: _87  and  _90
REMARK   39  A    between atoms: _90  and  _91
REMARK   40  A    between atoms: _96  and  _98
REMARK   41  A    between atoms: _98  and  _99
REMARK   42  A    between atoms: _98  and  _101
REMARK   43  A    between atoms: _101  and  _102
REMARK   44  A    between atoms: _108  and  _110
REMARK   45  A    between atoms: _110  and  _111
REMARK   46  A    between atoms: _110  and  _113
REMARK   47  A    between atoms: _113  and  _114
REMARK   48  A    between atoms: _117  and  _119
REMARK   49  A    between atoms: _119  and  _120
REMARK   50  A    between atoms: _119  and  _122
REMARK   51  A    between atoms: _122  and  _123
REMARK   52  A    between atoms: _123  and  _124
REMARK   53  A    between atoms: _124  and  _126
REMARK   54  A    between atoms: _126  and  CA_395
REMARK   55  A    between atoms: _127  and  _129
REMARK   56  A    between atoms: _129  and  _130
REMARK   57  A    between atoms: _129  and  _132
REMARK   58  A    between atoms: _132  and  _133
REMARK   59  A    between atoms: _143  and  _145
REMARK   60  A    between atoms: _145  and  _146
REMARK   61  A    between atoms: _145  and  _148
REMARK   62  A    between atoms: _148  and  _149
REMARK   63  A    between atoms: _152  and  _154
REMARK   64  A    between atoms: _154  and  _155
REMARK   65  A    between atoms: _154  and  _157
REMARK   66  A    between atoms: _157  and  _158
REMARK   67  A    between atoms: _163  and  _165
REMARK   68  A    between atoms: _165  and  _166
REMARK   69  A    between atoms: _165  and  _168
REMARK   70  A    between atoms: _168  and  _169
REMARK   71  A    between atoms: _172  and  _174
REMARK   72  A    between atoms: _174  and  _175
REMARK   73  A    between atoms: _174  and  _177
REMARK   74  A    between atoms: _177  and  _178
REMARK   75  A    between atoms: _184  and  _186
REMARK   76  A    between atoms: _186  and  _187
REMARK   77  A    between atoms: _186  and  _189
REMARK   78  A    between atoms: _189  and  _190
REMARK   79  A    between atoms: _193  and  _195
REMARK   80  A    between atoms: _195  and  _196
REMARK   81  A    between atoms: _195  and  _198
REMARK   82  A    between atoms: _198  and  _199
REMARK   83  A    between atoms: _202  and  _204
REMARK   84  A    between atoms: _204  and  _205
REMARK   85  A    between atoms: _208  and  _210
REMARK   86  A    between atoms: _210  and  _211
REMARK   87  A    between atoms: _210  and  _213
REMARK   88  A    between atoms: _216  and  _218
REMARK   89  A    between atoms: _218  and  _219
REMARK   90  A    between atoms: _218  and  _221
REMARK   91  A    between atoms: _221  and  _222
REMARK   92  A    between atoms: _226  and  ZN_394
REMARK   93  A    between atoms: _229  and  _230
REMARK   94  A    between atoms: _229  and  _232
REMARK   95  A    between atoms: _232  and  _233
REMARK   96  A    between atoms: _233  and  _234
REMARK   97  A    between atoms: _237  and  _239
REMARK   98  A    between atoms: _239  and  _240
REMARK   99  A    between atoms: _239  and  _242
REMARK  100  A    between atoms: _242  and  _243
REMARK  101  A    between atoms: _246  and  _248
REMARK  102  A    between atoms: _248  and  _249
REMARK  103  A    between atoms: _248  and  _251
REMARK  104  A    between atoms: _251  and  _252
REMARK  105  A    between atoms: _256  and  ZN_394
REMARK  106  A    between atoms: _257  and  _259
REMARK  107  A    between atoms: _259  and  _260
REMARK  108  A    between atoms: _259  and  _262
REMARK  109  A    between atoms: _262  and  _263
REMARK  110  A    between atoms: _265  and  _267
REMARK  111  A    between atoms: _267  and  _268
REMARK  112  A    between atoms: _267  and  _270
REMARK  113  A    between atoms: _270  and  _271
REMARK  114  A    between atoms: _274  and  _276
REMARK  115  A    between atoms: _276  and  _277
REMARK  116  A    between atoms: _279  and  _281
REMARK  117  A    between atoms: _281  and  _282
REMARK  118  A    between atoms: _281  and  _284
REMARK  119  A    between atoms: _284  and  _285
REMARK  120  A    between atoms: _289  and  ZN_394
REMARK  121  A    between atoms: _290  and  _292
REMARK  122  A    between atoms: _292  and  _293
REMARK  123  A    between atoms: _296  and  _298
REMARK  124  A    between atoms: _298  and  _299
REMARK  125  A    between atoms: _298  and  _301
REMARK  126  A    between atoms: _304  and  _306
REMARK  127  A    between atoms: _306  and  _307
REMARK  128  A    between atoms: _306  and  _309
REMARK  129  A    between atoms: _309  and  _310
REMARK  130  A    between atoms: _310  and  _311
REMARK  131  A    between atoms: _313  and  _315
REMARK  132  A    between atoms: _315  and  _316
REMARK  133  A    between atoms: _315  and  _318
REMARK  134  A    between atoms: _318  and  _319
REMARK  135  A    between atoms: _326  and  _327
REMARK  136  A    between atoms: _332  and  _334
REMARK  137  A    between atoms: _334  and  _335
REMARK  138  A    between atoms: _334  and  _337
REMARK  139  A    between atoms: _337  and  _338
REMARK  140  A    between atoms: _341  and  _343
REMARK  141  A    between atoms: _343  and  _344
REMARK  142  A    between atoms: _343  and  _346
REMARK  143  A    between atoms: _346  and  _347
REMARK  144  A    between atoms: _352  and  _353
REMARK  145  A    between atoms: _355  and  _357
REMARK  146  A    between atoms: _357  and  _358
REMARK  147  A    between atoms: _357  and  _360
REMARK  148  A    between atoms: _360  and  _361
REMARK  149  A    between atoms: _361  and  _362
REMARK  150  A    between atoms: _362  and  _363
REMARK  151  A    between atoms: _363  and  _364
REMARK  152  A    between atoms: _368  and  _370
REMARK  153  A    between atoms: _370  and  _371
REMARK  154  A    between atoms: _370  and  _373
REMARK  155  A    between atoms: _373  and  _374
REMARK  156  A    between atoms: _379  and  _380
REMARK  157  A    between atoms: _382  and  _384
REMARK  158  A    between atoms: _384  and  _385
REMARK  159  A    between atoms: _384  and  _387
REMARK  160  A    between atoms: _387  and  _388
REMARK                            x       y       z     vdW  Elec       q    Type
REMARK                         _______ _______ _______ _____ _____    ______ ____
ROOT
ATOM      1  CG  TRP A   1      13.325  18.747  12.154  0.00  0.00    -0.002 A 
ATOM      2  CD1 TRP A   1      14.591  19.088  11.835  0.00  0.00    +0.068 A 
ATOM      3  NE1 TRP A   1      14.617  19.815  10.668  0.00  0.00    -0.352 N 
ATOM      4  CE2 TRP A   1      13.328  20.026  10.265  0.00  0.00    +0.056 A 
ATOM      5  CZ2 TRP A   1      12.855  20.735   9.160  0.00  0.00    +0.017 A 
ATOM      6  CH2 TRP A   1      11.497  20.770   8.964  0.00  0.00    +0.001 A 
ATOM      7  CZ3 TRP A   1      10.629  20.106   9.831  0.00  0.00    +0.000 A 
ATOM      8  CE3 TRP A   1      11.108  19.412  10.946  0.00  0.00    +0.001 A 
ATOM      9  HE1 TRP A   1      15.471  20.147  10.176  0.00  0.00    +0.166 HD
ATOM     10  CD2 TRP A   1      12.485  19.334  11.144  0.00  0.00    +0.013 A 
ENDROOT
BRANCH   1  11
ATOM     11  CB  TRP A   1      12.883  17.969  13.357  0.00  0.00    +0.053 C 
BRANCH  11  12
ATOM     12  CA  TRP A   1      12.289  18.915  14.407  0.00  0.00    +0.137 C 
BRANCH  12  13
ATOM     13  N   TRP A   1      13.301  19.857  14.823  0.00  0.00    -0.239 NA
ATOM     14  H   TRP A   1      14.301  19.590  14.718  0.00  0.00    +0.142 HD
ENDBRANCH  12  13
BRANCH  12  15
ATOM     15  C   TRP A   1      11.717  18.159  15.590  0.00  0.00    +0.224 C 
ATOM     16  O   TRP A   1      12.466  17.735  16.478  0.00  0.00    -0.287 OA
ENDBRANCH  12  15
ENDBRANCH  11  12
ENDBRANCH   1  11
TORSDOF 4
REMARK  Name = ../refined-set-2016/1rmz/1rmz_pocket.pdb
REMARK  160 active torsions:
REMARK  status: ('A' for Active; 'I' for Inactive)
REMARK    1  A    between atoms: _1  and  _3
REMARK    2  A    between atoms: _3  and  _4
REMARK    3  A    between atoms: _3  and  _6
REMARK    4  A    between atoms: _6  and  _7
REMARK    5  A    between atoms: _13  and  _15
REMARK    6  A    between atoms: _15  and  _16
REMARK    7  A    between atoms: _15  and  _18
REMARK    8  A    between atoms: _18  and  _19
REMARK    9  A    between atoms: _22  and  _24
REMARK   10  A    between atoms: _24  and  _25
REMARK   11  A    between atoms: _27  and  _29
REMARK   12  A    between atoms: _29  and  _30
REMARK   13  A    between atoms: _32  and  _34
REMARK   14  A    between atoms: _34  and  _35
REMARK   15  A    between atoms: _34  and  _37
REMARK   16  A    between atoms: _35  and  _36
REMARK   17  A    between atoms: _35  and  _41
REMARK   18  A    between atoms: _36  and  CA_395
REMARK   19  A    between atoms: _37  and  _38
REMARK   20  A    between atoms: _41  and  _43
REMARK   21  A    between atoms: _43  and  _44
REMARK   22  A    between atoms: _43  and  _46
REMARK   23  A    between atoms: _46  and  _47
REMARK   24  A    between atoms: _50  and  _52
REMARK   25  A    between atoms: _52  and  _53
REMARK   26  A    between atoms: _56  and  _58
REMARK   27  A    between atoms: _58  and  _59
REMARK   28  A    between atoms: _58  and  _61
REMARK   29  A    between atoms: _61  and  _62
REMARK   30  A    between atoms: _67  and  _69
REMARK   31  A    between atoms: _69  and  _70
REMARK   32  A    between atoms: _73  and  _75
REMARK   33  A    between atoms: _75  and  _76
REMARK   34  A    between atoms: _75  and  _78
REMARK   35  A    between atoms: _78  and  _79
REMARK   36  A    between atoms: _85  and  _87
REMARK   37  A    between atoms: _87  and  _88
REMARK   38  A    between atoms: _87  and  _90
REMARK   39  A    between atoms: _90  and  _91
REMARK   40  A    between atoms: _96  and  _98
REMARK   41  A    between atoms: _98  and  _99
REMARK   42  A    between atoms: _98  and  _101
REMARK   43  A    between atoms: _101  and  _102
REMARK   44  A    between atoms: _108  and  _110
REMARK   45  A    between atoms: _110  and  _111
REMARK   46  A    between atoms: _110  and  _113
REMARK   47  A    between atoms: _113  and  _114
REMARK   48  A    between atoms: _117  and  _119
REMARK   49  A    between atoms: _119  and  _120
REMARK   50  A    between atoms: _119  and  _122
REMARK   51  A    between atoms: _122  and  _123
REMARK   52  A    between atoms: _123  and  _124
REMARK   53  A    between atoms: _124  and  _126
REMARK   54  A    between atoms: _126  and  CA_395
REMARK   55  A    between atoms: _127  and  _129
REMARK   56  A    between atoms: _129  and  _130
REMARK   57  A    between atoms: _129  and  _132
REMARK   58  A    between atoms: _132  and  _133
REMARK   59  A    between atoms: _143  and  _145
REMARK   60  A    between atoms: _145  and  _146
REMARK   61  A    between atoms: _145  and  _148
REMARK   62  A    between atoms: _148  and  _149
REMARK   63  A    between atoms: _152  and  _154
REMARK   64  A    between atoms: _154  and  _155
REMARK   65  A    between atoms: _154  and  _157
REMARK   66  A    between atoms: _157  and  _158
REMARK   67  A    between atoms: _163  and  _165
REMARK   68  A    between atoms: _165  and  _166
REMARK   69  A    between atoms: _165  and  _168
REMARK   70  A    between atoms: _168  and  _169
REMARK   71  A    between atoms: _172  and  _174
REMARK   72  A    between atoms: _174  and  _175
REMARK   73  A    between atoms: _174  and  _177
REMARK   74  A    between atoms: _177  and  _178
REMARK   75  A    between atoms: _184  and  _186
REMARK   76  A    between atoms: _186  and  _187
REMARK   77  A    between atoms: _186  and  _189
REMARK   78  A    between atoms: _189  and  _190
REMARK   79  A    between atoms: _193  and  _195
REMARK   80  A    between atoms: _195  and  _196
REMARK   81  A    between atoms: _195  and  _198
REMARK   82  A    between atoms: _198  and  _199
REMARK   83  A    between atoms: _202  and  _204
REMARK   84  A    between atoms: _204  and  _205
REMARK   85  A    between atoms: _208  and  _210
REMARK   86  A    between atoms: _210  and  _211
REMARK   87  A    between atoms: _210  and  _213
REMARK   88  A    between atoms: _216  and  _218
REMARK   89  A    between atoms: _218  and  _219
REMARK   90  A    between atoms: _218  and  _221
REMARK   91  A    between atoms: _221  and  _222
REMARK   92  A    between atoms: _226  and  ZN_394
REMARK   93  A    between atoms: _229  and  _230
REMARK   94  A    between atoms: _229  and  _232
REMARK   95  A    between atoms: _232  and  _233
REMARK   96  A    between atoms: _233  and  _234
REMARK   97  A    between atoms: _237  and  _239
REMARK   98  A    between atoms: _239  and  _240
REMARK   99  A    between atoms: _239  and  _242
REMARK  100  A    between atoms: _242  and  _243
REMARK  101  A    between atoms: _246  and  _248
REMARK  102  A    between atoms: _248  and  _249
REMARK  103  A    between atoms: _248  and  _251
REMARK  104  A    between atoms: _251  and  _252
REMARK  105  A    between atoms: _256  and  ZN_394
REMARK  106  A    between atoms: _257  and  _259
REMARK  107  A    between atoms: _259  and  _260
REMARK  108  A    between atoms: _259  and  _262
REMARK  109  A    between atoms: _262  and  _263
REMARK  110  A    between atoms: _265  and  _267
REMARK  111  A    between atoms: _267  and  _268
REMARK  112  A    between atoms: _267  and  _270
REMARK  113  A    between atoms: _270  and  _271
REMARK  114  A    between atoms: _274  and  _276
REMARK  115  A    between atoms: _276  and  _277
REMARK  116  A    between atoms: _279  and  _281
REMARK  117  A    between atoms: _281  and  _282
REMARK  118  A    between atoms: _281  and  _284
REMARK  119  A    between atoms: _284  and  _285
REMARK  120  A    between atoms: _289  and  ZN_394
REMARK  121  A    between atoms: _290  and  _292
REMARK  122  A    between atoms: _292  and  _293
REMARK  123  A    between atoms: _296  and  _298
REMARK  124  A    between atoms: _298  and  _299
REMARK  125  A    between atoms: _298  and  _301
REMARK  126  A    between atoms: _304  and  _306
REMARK  127  A    between atoms: _306  and  _307
REMARK  128  A    between atoms: _306  and  _309
REMARK  129  A    between atoms: _309  and  _310
REMARK  130  A    between atoms: _310  and  _311
REMARK  131  A    between atoms: _313  and  _315
REMARK  132  A    between atoms: _315  and  _316
REMARK  133  A    between atoms: _315  and  _318
REMARK  134  A    between atoms: _318  and  _319
REMARK  135  A    between atoms: _326  and  _327
REMARK  136  A    between atoms: _332  and  _334
REMARK  137  A    between atoms: _334  and  _335
REMARK  138  A    between atoms: _334  and  _337
REMARK  139  A    between atoms: _337  and  _338
REMARK  140  A    between atoms: _341  and  _343
REMARK  141  A    between atoms: _343  and  _344
REMARK  142  A    between atoms: _343  and  _346
REMARK  143  A    between atoms: _346  and  _347
REMARK  144  A    between atoms: _352  and  _353
REMARK  145  A    between atoms: _355  and  _357
REMARK  146  A    between atoms: _357  and  _358
REMARK  147  A    between atoms: _357  and  _360
REMARK  148  A    between atoms: _360  and  _361
REMARK  149  A    between atoms: _361  and  _362
REMARK  150  A    between atoms: _362  and  _363
REMARK  151  A    between atoms: _363  and  _364
REMARK  152  A    between atoms: _368  and  _370
REMARK  153  A    between atoms: _370  and  _371
REMARK  154  A    between atoms: _370  and  _373
REMARK  155  A    between atoms: _373  and  _374
REMARK  156  A    between atoms: _379  and  _380
REMARK  157  A    between atoms: _382  and  _384
REMARK  158  A    between atoms: _384  and  _385
REMARK  159  A    between atoms: _384  and  _387
REMARK  160  A    between atoms: _387  and  _388
REMARK                            x       y       z     vdW  Elec       q    Type
REMARK                         _______ _______ _______ _____ _____    ______ ____
ROOT
ATOM      1  C   VAL A   8       3.273  16.366   3.345  0.00  0.00    +0.000 C 
ATOM      2  N   UNK A   9       3.517  17.695   3.783  0.00  0.00    +0.000 N 
ATOM      3  H   UNK A   9       3.588  17.905   4.799  0.00  0.00    +0.000 HD
ATOM      4  O   VAL A   8       3.064  16.038   2.201  0.00  0.00    +0.000 OA
ENDROOT
BRANCH   1   5
ATOM      5  CA  VAL A   8       3.265  15.327   4.466  0.00  0.00    +0.000 C 
BRANCH   5   7
ATOM      6  C   ALA A   7       5.648  15.446   4.714  0.00  0.00    +0.000 C 
ATOM      7  N   VAL A   8       4.445  15.522   5.271  0.00  0.00    +0.000 N 
ATOM      8  H   VAL A   8       4.354  15.722   6.288  0.00  0.00    +0.000 HD
ATOM      9  O   ALA A   7       5.767  15.152   3.520  0.00  0.00    +0.000 OA
BRANCH   6  10
ATOM     10  CA  ALA A   7       6.849  15.742   5.601  0.00  0.00    +0.000 C 
ATOM     11  CB  ALA A   7       7.301  14.501   6.307  0.00  0.00    +0.000 C 
BRANCH  10  13
ATOM     12  C   THR A   6       6.398  18.076   6.205  0.00  0.00    +0.000 C 
ATOM     13  N   ALA A   7       6.653  16.823   6.560  0.00  0.00    +0.000 N 
ATOM     14  H   ALA A   7       6.716  16.601   7.574  0.00  0.00    +0.000 HD
ATOM     15  O   THR A   6       6.355  18.400   5.039  0.00  0.00    +0.000 OA
BRANCH  12  16
ATOM     16  CA  THR A   6       6.119  19.105   7.272  0.00  0.00    +0.000 C 
BRANCH  16  18
ATOM     17  C   LEU A   5       3.992  18.170   7.970  0.00  0.00    +0.000 C 
ATOM     18  N   THR A   6       5.247  18.505   8.255  0.00  0.00    +0.000 N 
ATOM     19  H   THR A   6       5.611  18.330   9.213  0.00  0.00    +0.000 HD
ATOM     20  O   LEU A   5       3.478  18.298   6.833  0.00  0.00    +0.000 OA
BRANCH  17  21
ATOM     21  CA  LEU A   5       3.202  17.551   9.126  0.00  0.00    +0.000 C 
BRANCH  21  23
ATOM     22  C   PHE A   4       4.520  15.536   9.359  0.00  0.00    +0.000 C 
ATOM     23  N   LEU A   5       4.063  16.643   9.914  0.00  0.00    +0.000 N 
ATOM     24  H   LEU A   5       4.307  16.875  10.898  0.00  0.00    +0.000 HD
ATOM     25  O   PHE A   4       4.314  15.267   8.198  0.00  0.00    +0.000 OA
BRANCH  22  26
ATOM     26  CA  PHE A   4       5.290  14.555  10.235  0.00  0.00    +0.000 C 
BRANCH  26  28
ATOM     27  C   UNK A   3       7.271  15.973  10.327  0.00  0.00    +0.000 C 
ATOM     28  N   PHE A   4       6.340  15.250  10.957  0.00  0.00    +0.000 N 
ATOM     29  H   PHE A   4       6.369  15.183  11.994  0.00  0.00    +0.000 HD
ATOM     30  O   UNK A   3       7.256  16.102   9.107  0.00  0.00    +0.000 OA
BRANCH  27  31
ATOM     31  C   UNK A   3       8.383  16.614  11.140  0.00  0.00    +0.000 C 
BRANCH  31  33
ATOM     32  C   SER A   2       7.024  18.317  12.204  0.00  0.00    +0.000 C 
ATOM     33  N   UNK A   3       7.834  17.283  12.306  0.00  0.00    +0.000 N 
ATOM     34  H   UNK A   3       8.088  16.935  13.252  0.00  0.00    +0.000 HD
ATOM     35  O   SER A   2       6.689  18.800  11.117  0.00  0.00    +0.000 OA
BRANCH  32  36
ATOM     36  CA  SER A   2       6.558  18.947  13.511  0.00  0.00    +0.000 C 
BRANCH  36  39
ATOM     37  C   UNK A   1       8.240  20.675  13.668  0.00  0.00    +0.000 C 
ATOM     38  O   UNK A   1       9.137  19.831  13.712  0.00  0.00    +0.000 OA
ATOM     39  N   SER A   2       6.968  20.332  13.544  0.00  0.00    +0.000 N 
ATOM     40  H   SER A   2       6.246  21.077  13.469  0.00  0.00    +0.000 HD
BRANCH  37  41
ATOM     41  C   UNK A   1       8.555  22.156  13.772  0.00  0.00    +0.000 C 
BRANCH  41  42
ATOM     42  C   UNK A   1       9.470  22.556  12.628  0.00  0.00    +0.000 C 
ATOM     43  C   UNK A   1       8.685  22.596  11.328  0.00  0.00    +0.000 C 
BRANCH  42  44
ATOM     44  O   UNK A   1       9.946  23.895  12.809  0.00  0.00    +0.000 OA
ATOM     45  H   UNK A   1      10.450  23.953  13.659  0.00  0.00    +0.000 HD
ENDBRANCH  42  44
ENDBRANCH  41  42
BRANCH  41  46
ATOM     46  N   UNK A   1       9.228  22.461  15.026  0.00  0.00    +0.000 NA
ATOM     47  H   UNK A   1      10.168  22.052  15.202  0.00  0.00    +0.000 HD
ENDBRANCH  41  46
ENDBRANCH  37  41
ENDBRANCH  36  39
BRANCH  36  48
ATOM     48  CB  SER A   2       5.065  18.839  13.639  0.00  0.00    +0.000 C 
BRANCH  48  49
ATOM     49  CG  SER A   2       4.609  17.451  13.772  0.00  0.00    +0.000 C 
ATOM     50  ND2 SER A   2       4.625  16.946  15.016  0.00  0.00    +0.000 N 
ATOM     51 HD21 SER A   2       4.962  17.528  15.809  0.00  0.00    +0.000 HD
ATOM     52 HD22 SER A   2       4.300  15.973  15.186  0.00  0.00    +0.000 HD
ATOM     53  OD1 SER A   2       4.223  16.810  12.806  0.00  0.00    +0.000 OA
ENDBRANCH  48  49
ENDBRANCH  36  48
ENDBRANCH  32  36
ENDBRANCH  31  33
BRANCH  31  54
ATOM     54  C   UNK A   3       9.443  15.570  11.569  0.00  0.00    +0.000 C 
BRANCH  54  55
ATOM     55  C   UNK A   3      10.037  14.776  10.399  0.00  0.00    +0.000 C 
ATOM     56  C   UNK A   3      10.995  13.695  10.891  0.00  0.00    +0.000 C 
ATOM     57  C   UNK A   3      10.775  15.732   9.464  0.00  0.00    +0.000 C 
ENDBRANCH  54  55
ENDBRANCH  31  54
ENDBRANCH  27  31
ENDBRANCH  26  28
BRANCH  26  58
ATOM     58  CB  PHE A   4       4.324  13.859  11.236  0.00  0.00    +0.000 C 
BRANCH  58  59
ATOM     59  CG  PHE A   4       3.011  13.460  10.641  0.00  0.00    +0.000 A 
ATOM     60  CD2 PHE A   4       1.848  14.143  10.972  0.00  0.00    +0.000 A 
ATOM     61  CE2 PHE A   4       0.634  13.774  10.426  0.00  0.00    +0.000 A 
ATOM     62  CZ  PHE A   4       0.557  12.750   9.522  0.00  0.00    +0.000 A 
ATOM     63  CE1 PHE A   4       1.728  12.069   9.160  0.00  0.00    +0.000 A 
ATOM     64  CD1 PHE A   4       2.922  12.438   9.728  0.00  0.00    +0.000 A 
ENDBRANCH  58  59
ENDBRANCH  26  58
ENDBRANCH  22  26
ENDBRANCH  21  23
BRANCH  21  65
ATOM     65  CB  LEU A   5       2.652  18.682   9.971  0.00  0.00    +0.000 C 
BRANCH  65  66
ATOM     66  CG  LEU A   5       1.683  18.235  11.083  0.00  0.00    +0.000 C 
ATOM     67  CD2 LEU A   5       1.430  19.422  12.007  0.00  0.00    +0.000 C 
ATOM     68  CD1 LEU A   5       0.388  17.695  10.478  0.00  0.00    +0.000 C 
ENDBRANCH  65  66
ENDBRANCH  21  65
ENDBRANCH  17  21
ENDBRANCH  16  18
BRANCH  16  69
ATOM     69  CB  THR A   6       7.415  19.570   7.890  0.00  0.00    +0.000 C 
ATOM     70  CG2 THR A   6       8.221  20.353   6.917  0.00  0.00    +0.000 C 
BRANCH  69  71
ATOM     71  OG1 THR A   6       7.174  20.529   8.921  0.00  0.00    +0.000 OA
ATOM     72  HG1 THR A   6       6.614  20.119   9.627  0.00  0.00    +0.000 HD
ENDBRANCH  69  71
ENDBRANCH  16  69
ENDBRANCH  12  16
ENDBRANCH  10  13
ENDBRANCH   6  10
ENDBRANCH   5   7
BRANCH   5  73
ATOM     73  CB  VAL A   8       1.952  15.419   5.279  0.00  0.00    +0.000 C 
ATOM     74  CG2 VAL A   8       1.867  14.309   6.322  0.00  0.00    +0.000 C 
ATOM     75  CG1 VAL A   8       0.768  15.333   4.333  0.00  0.00    +0.000 C 
ENDBRANCH   5  73
ENDBRANCH   1   5
BRANCH   2  76
ATOM     76  C   UNK A   9       3.666  18.757   2.810  0.00  0.00    +0.000 C 
BRANCH  76  77
ATOM     77  C   UNK A   9       4.685  18.489   1.711  0.00  0.00    +0.000 C 
ATOM     78  N   GLU A  10       5.879  18.207   2.067  0.00  0.00    +0.000 N 
ATOM     79  H   GLU A  10       6.041  18.230   3.094  0.00  0.00    +0.000 HD
ATOM     80  CA  GLU A  10       7.042  17.862   1.282  0.00  0.00    +0.000 C 
ATOM     81  O   UNK A   9       4.273  18.594   0.530  0.00  0.00    +0.000 OA
BRANCH  80  82
ATOM     82  C   GLU A  10       6.853  16.709   0.318  0.00  0.00    +0.000 C 
ATOM     83  N   ILE A  11       6.339  15.592   0.785  0.00  0.00    +0.000 N 
ATOM     84  H   ILE A  11       6.250  15.546   1.820  0.00  0.00    +0.000 HD
ATOM     85  O   GLU A  10       7.171  16.910  -0.861  0.00  0.00    +0.000 OA
BRANCH  83  86
ATOM     86  CA  ILE A  11       5.883  14.428   0.082  0.00  0.00    +0.000 C 
BRANCH  86  87
ATOM     87  C   ILE A  11       4.842  14.827  -0.945  0.00  0.00    +0.000 C 
ATOM     88  O   ILE A  11       5.000  14.393  -2.096  0.00  0.00    +0.000 OA
ENDBRANCH  86  87
BRANCH  86  89
ATOM     89  CB  ILE A  11       5.574  13.190   0.875  0.00  0.00    +0.000 C 
ATOM     90  CG2 ILE A  11       5.057  12.028   0.072  0.00  0.00    +0.000 C 
BRANCH  89  91
ATOM     91  CG1 ILE A  11       6.781  12.761   1.702  0.00  0.00    +0.000 C 
ATOM     92  CD1 ILE A  11       6.509  11.817   2.826  0.00  0.00    +0.000 C 
ENDBRANCH  89  91
ENDBRANCH  86  89
ENDBRANCH  83  86
ENDBRANCH  80  82
BRANCH  80  93
ATOM     93  CB  GLU A  10       8.352  17.835   2.020  0.00  0.00    +0.000 C 
BRANCH  93  94
ATOM     94  CG  GLU A  10       8.763  19.064   2.775  0.00  0.00    +0.000 C 
BRANCH  94  95
ATOM     95  CD  GLU A  10       8.791  20.314   1.863  0.00  0.00    +0.000 C 
ATOM     96  OE2 GLU A  10       8.328  21.337   2.352  0.00  0.00    +0.000 OA
ATOM     97  OE1 GLU A  10       9.187  20.205   0.728  0.00  0.00    +0.000 OA
ENDBRANCH  94  95
ENDBRANCH  93  94
ENDBRANCH  80  93
ENDBRANCH  76  77
BRANCH  76  98
ATOM     98  C   UNK A   9       3.794  20.087   3.485  0.00  0.00    +0.000 C 
BRANCH  98  99
ATOM     99  C   UNK A   9       3.927  21.265   2.587  0.00  0.00    +0.000 A 
ATOM    100  N   UNK A   9       2.979  22.210   2.424  0.00  0.00    +0.000 NA
ATOM    101  C   UNK A   9       3.411  23.123   1.603  0.00  0.00    +0.000 A 
ATOM    102  N   UNK A   9       4.602  22.824   1.199  0.00  0.00    +0.000 N 
ATOM    103  C   UNK A   9       4.989  21.665   1.861  0.00  0.00    +0.000 A 
BRANCH 102 104
ATOM    104 ZN   UNK A   9       5.855  23.794  -0.142  0.00  0.00    +0.000 Zn
BRANCH 104 105
ATOM    105  N   UNK A   9       5.789  22.242  -1.581  0.00  0.00    +0.000 N 
ATOM    106  C   UNK A   9       6.477  21.106  -1.554  0.00  0.00    +0.000 A 
ATOM    107  C   UNK A   9       6.175  20.410  -2.650  0.00  0.00    +0.000 A 
ATOM    108  N   UNK A   9       5.279  21.180  -3.338  0.00  0.00    +0.000 NA
ATOM    109  C   UNK A   9       5.069  22.268  -2.701  0.00  0.00    +0.000 A 
BRANCH 107 110
ATOM    110  C   UNK A   9       6.683  19.115  -3.159  0.00  0.00    +0.000 C 
BRANCH 110 111
ATOM    111  C   UNK A   9       5.635  18.132  -3.649  0.00  0.00    +0.000 C 
BRANCH 111 112
ATOM    112  C   UNK A   9       6.424  16.993  -4.327  0.00  0.00    +0.000 C 
ATOM    113  N   SER A   2       7.022  16.075  -3.623  0.00  0.00    +0.000 N 
ATOM    114  H   SER A   2       7.003  16.154  -2.586  0.00  0.00    +0.000 HD
ATOM    115  O   UNK A   9       6.540  16.999  -5.534  0.00  0.00    +0.000 OA
BRANCH 113 116
ATOM    116  CA  SER A   2       7.724  14.930  -4.228  0.00  0.00    +0.000 C 
BRANCH 116 117
ATOM    117  C   SER A   2       6.854  14.090  -5.166  0.00  0.00    +0.000 C 
ATOM    118  O   SER A   2       7.379  13.428  -6.070  0.00  0.00    +0.000 OA
ENDBRANCH 116 117
BRANCH 116 119
ATOM    119  CB  SER A   2       8.265  13.987  -3.157  0.00  0.00    +0.000 C 
BRANCH 119 120
ATOM    120  OG  SER A   2       9.182  14.602  -2.310  0.00  0.00    +0.000 OA
ATOM    121  H   SER A   2       9.951  14.931  -2.840  0.00  0.00    +0.000 HD
ENDBRANCH 119 120
ENDBRANCH 116 119
ENDBRANCH 113 116
ENDBRANCH 111 112
BRANCH 111 122
ATOM    122  N   UNK A   9       4.763  17.638  -2.586  0.00  0.00    +0.000 NA
ATOM    123  H   UNK A   1       4.867  18.034  -1.630  0.00  0.00    +0.000 HD
ENDBRANCH 111 122
ENDBRANCH 110 111
ENDBRANCH 107 110
ENDBRANCH 104 105
BRANCH 104 124
ATOM    124  N   UNK A   9       4.573  25.107  -1.127  0.00  0.00    +0.000 N 
ATOM    125  C   UNK A   9       3.268  24.863  -1.471  0.00  0.00    +0.000 A 
ATOM    126  C   UNK A   9       2.848  25.915  -2.217  0.00  0.00    +0.000 A 
ATOM    127  N   UNK A   9       3.923  26.756  -2.328  0.00  0.00    +0.000 NA
ATOM    128  C   UNK A   9       4.946  26.256  -1.660  0.00  0.00    +0.000 A 
BRANCH 126 129
ATOM    129  C   UNK A   9       1.535  26.186  -2.859  0.00  0.00    +0.000 C 
BRANCH 129 130
ATOM    130  C   UNK A   9       0.819  24.897  -3.245  0.00  0.00    +0.000 C 
BRANCH 130 131
ATOM    131  N   UNK A   9       1.462  24.290  -4.376  0.00  0.00    +0.000 N 
ATOM    132  C   SER A   2       1.359  22.991  -4.626  0.00  0.00    +0.000 C 
ATOM    133  O   SER A   2       0.640  22.218  -3.955  0.00  0.00    +0.000 OA
ATOM    134  H   UNK A   9       2.024  24.885  -5.017  0.00  0.00    +0.000 HD
BRANCH 132 135
ATOM    135  CA  SER A   2       2.157  22.506  -5.800  0.00  0.00    +0.000 C 
BRANCH 135 136
ATOM    136  N   SER A   2       1.743  21.179  -6.220  0.00  0.00    +0.000 N 
ATOM    137  C   UNK A   1       2.406  20.088  -5.865  0.00  0.00    +0.000 C 
ATOM    138  O   UNK A   1       3.551  20.127  -5.396  0.00  0.00    +0.000 OA
ATOM    139  H   SER A   2       0.898  21.082  -6.819  0.00  0.00    +0.000 HD
BRANCH 137 140
ATOM    140  C   UNK A   1       1.667  18.792  -6.050  0.00  0.00    +0.000 C 
BRANCH 140 141
ATOM    141  N   UNK A   1       2.572  17.716  -6.433  0.00  0.00    +0.000 NA
ATOM    142  H   UNK A   1       2.897  17.032  -5.720  0.00  0.00    +0.000 HD
ENDBRANCH 140 141
BRANCH 140 143
ATOM    143  C   UNK A   1       0.971  18.486  -4.733  0.00  0.00    +0.000 C 
BRANCH 143 144
ATOM    144  C   UNK A   1       0.025  17.304  -4.743  0.00  0.00    +0.000 C 
ATOM    145  C   UNK A   1      -0.630  17.179  -3.371  0.00  0.00    +0.000 C 
ATOM    146  C   UNK A   1      -1.046  17.427  -5.796  0.00  0.00    +0.000 C 
ENDBRANCH 143 144
ENDBRANCH 140 143
ENDBRANCH 137 140
ENDBRANCH 135 136
ENDBRANCH 132 135
ENDBRANCH 130 131
BRANCH 130 147
ATOM    147  C   UNK A   9      -0.656  25.118  -3.486  0.00  0.00    +0.000 C 
ATOM    148  O   UNK A   3      -1.118  25.258  -4.626  0.00  0.00    +0.000 OA
ENDBRANCH 130 147
ENDBRANCH 129 130
ENDBRANCH 126 129
ENDBRANCH 104 124
ENDBRANCH 102 104
ENDBRANCH  98  99
ENDBRANCH  76  98
ENDBRANCH   2  76
TORSDOF 62
REMARK  Name = ../refined-set-2016/1rmz/1rmz_pocket.pdb
REMARK  160 active torsions:
REMARK  status: ('A' for Active; 'I' for Inactive)
REMARK    1  A    between atoms: _1  and  _3
REMARK    2  A    between atoms: _3  and  _4
REMARK    3  A    between atoms: _3  and  _6
REMARK    4  A    between atoms: _6  and  _7
REMARK    5  A    between atoms: _13  and  _15
REMARK    6  A    between atoms: _15  and  _16
REMARK    7  A    between atoms: _15  and  _18
REMARK    8  A    between atoms: _18  and  _19
REMARK    9  A    between atoms: _22  and  _24
REMARK   10  A    between atoms: _24  and  _25
REMARK   11  A    between atoms: _27  and  _29
REMARK   12  A    between atoms: _29  and  _30
REMARK   13  A    between atoms: _32  and  _34
REMARK   14  A    between atoms: _34  and  _35
REMARK   15  A    between atoms: _34  and  _37
REMARK   16  A    between atoms: _35  and  _36
REMARK   17  A    between atoms: _35  and  _41
REMARK   18  A    between atoms: _36  and  CA_395
REMARK   19  A    between atoms: _37  and  _38
REMARK   20  A    between atoms: _41  and  _43
REMARK   21  A    between atoms: _43  and  _44
REMARK   22  A    between atoms: _43  and  _46
REMARK   23  A    between atoms: _46  and  _47
REMARK   24  A    between atoms: _50  and  _52
REMARK   25  A    between atoms: _52  and  _53
REMARK   26  A    between atoms: _56  and  _58
REMARK   27  A    between atoms: _58  and  _59
REMARK   28  A    between atoms: _58  and  _61
REMARK   29  A    between atoms: _61  and  _62
REMARK   30  A    between atoms: _67  and  _69
REMARK   31  A    between atoms: _69  and  _70
REMARK   32  A    between atoms: _73  and  _75
REMARK   33  A    between atoms: _75  and  _76
REMARK   34  A    between atoms: _75  and  _78
REMARK   35  A    between atoms: _78  and  _79
REMARK   36  A    between atoms: _85  and  _87
REMARK   37  A    between atoms: _87  and  _88
REMARK   38  A    between atoms: _87  and  _90
REMARK   39  A    between atoms: _90  and  _91
REMARK   40  A    between atoms: _96  and  _98
REMARK   41  A    between atoms: _98  and  _99
REMARK   42  A    between atoms: _98  and  _101
REMARK   43  A    between atoms: _101  and  _102
REMARK   44  A    between atoms: _108  and  _110
REMARK   45  A    between atoms: _110  and  _111
REMARK   46  A    between atoms: _110  and  _113
REMARK   47  A    between atoms: _113  and  _114
REMARK   48  A    between atoms: _117  and  _119
REMARK   49  A    between atoms: _119  and  _120
REMARK   50  A    between atoms: _119  and  _122
REMARK   51  A    between atoms: _122  and  _123
REMARK   52  A    between atoms: _123  and  _124
REMARK   53  A    between atoms: _124  and  _126
REMARK   54  A    between atoms: _126  and  CA_395
REMARK   55  A    between atoms: _127  and  _129
REMARK   56  A    between atoms: _129  and  _130
REMARK   57  A    between atoms: _129  and  _132
REMARK   58  A    between atoms: _132  and  _133
REMARK   59  A    between atoms: _143  and  _145
REMARK   60  A    between atoms: _145  and  _146
REMARK   61  A    between atoms: _145  and  _148
REMARK   62  A    between atoms: _148  and  _149
REMARK   63  A    between atoms: _152  and  _154
REMARK   64  A    between atoms: _154  and  _155
REMARK   65  A    between atoms: _154  and  _157
REMARK   66  A    between atoms: _157  and  _158
REMARK   67  A    between atoms: _163  and  _165
REMARK   68  A    between atoms: _165  and  _166
REMARK   69  A    between atoms: _165  and  _168
REMARK   70  A    between atoms: _168  and  _169
REMARK   71  A    between atoms: _172  and  _174
REMARK   72  A    between atoms: _174  and  _175
REMARK   73  A    between atoms: _174  and  _177
REMARK   74  A    between atoms: _177  and  _178
REMARK   75  A    between atoms: _184  and  _186
REMARK   76  A    between atoms: _186  and  _187
REMARK   77  A    between atoms: _186  and  _189
REMARK   78  A    between atoms: _189  and  _190
REMARK   79  A    between atoms: _193  and  _195
REMARK   80  A    between atoms: _195  and  _196
REMARK   81  A    between atoms: _195  and  _198
REMARK   82  A    between atoms: _198  and  _199
REMARK   83  A    between atoms: _202  and  _204
REMARK   84  A    between atoms: _204  and  _205
REMARK   85  A    between atoms: _208  and  _210
REMARK   86  A    between atoms: _210  and  _211
REMARK   87  A    between atoms: _210  and  _213
REMARK   88  A    between atoms: _216  and  _218
REMARK   89  A    between atoms: _218  and  _219
REMARK   90  A    between atoms: _218  and  _221
REMARK   91  A    between atoms: _221  and  _222
REMARK   92  A    between atoms: _226  and  ZN_394
REMARK   93  A    between atoms: _229  and  _230
REMARK   94  A    between atoms: _229  and  _232
REMARK   95  A    between atoms: _232  and  _233
REMARK   96  A    between atoms: _233  and  _234
REMARK   97  A    between atoms: _237  and  _239
REMARK   98  A    between atoms: _239  and  _240
REMARK   99  A    between atoms: _239  and  _242
REMARK  100  A    between atoms: _242  and  _243
REMARK  101  A    between atoms: _246  and  _248
REMARK  102  A    between atoms: _248  and  _249
REMARK  103  A    between atoms: _248  and  _251
REMARK  104  A    between atoms: _251  and  _252
REMARK  105  A    between atoms: _256  and  ZN_394
REMARK  106  A    between atoms: _257  and  _259
REMARK  107  A    between atoms: _259  and  _260
REMARK  108  A    between atoms: _259  and  _262
REMARK  109  A    between atoms: _262  and  _263
REMARK  110  A    between atoms: _265  and  _267
REMARK  111  A    between atoms: _267  and  _268
REMARK  112  A    between atoms: _267  and  _270
REMARK  113  A    between atoms: _270  and  _271
REMARK  114  A    between atoms: _274  and  _276
REMARK  115  A    between atoms: _276  and  _277
REMARK  116  A    between atoms: _279  and  _281
REMARK  117  A    between atoms: _281  and  _282
REMARK  118  A    between atoms: _281  and  _284
REMARK  119  A    between atoms: _284  and  _285
REMARK  120  A    between atoms: _289  and  ZN_394
REMARK  121  A    between atoms: _290  and  _292
REMARK  122  A    between atoms: _292  and  _293
REMARK  123  A    between atoms: _296  and  _298
REMARK  124  A    between atoms: _298  and  _299
REMARK  125  A    between atoms: _298  and  _301
REMARK  126  A    between atoms: _304  and  _306
REMARK  127  A    between atoms: _306  and  _307
REMARK  128  A    between atoms: _306  and  _309
REMARK  129  A    between atoms: _309  and  _310
REMARK  130  A    between atoms: _310  and  _311
REMARK  131  A    between atoms: _313  and  _315
REMARK  132  A    between atoms: _315  and  _316
REMARK  133  A    between atoms: _315  and  _318
REMARK  134  A    between atoms: _318  and  _319
REMARK  135  A    between atoms: _326  and  _327
REMARK  136  A    between atoms: _332  and  _334
REMARK  137  A    between atoms: _334  and  _335
REMARK  138  A    between atoms: _334  and  _337
REMARK  139  A    between atoms: _337  and  _338
REMARK  140  A    between atoms: _341  and  _343
REMARK  141  A    between atoms: _343  and  _344
REMARK  142  A    between atoms: _343  and  _346
REMARK  143  A    between atoms: _346  and  _347
REMARK  144  A    between atoms: _352  and  _353
REMARK  145  A    between atoms: _355  and  _357
REMARK  146  A    between atoms: _357  and  _358
REMARK  147  A    between atoms: _357  and  _360
REMARK  148  A    between atoms: _360  and  _361
REMARK  149  A    between atoms: _361  and  _362
REMARK  150  A    between atoms: _362  and  _363
REMARK  151  A    between atoms: _363  and  _364
REMARK  152  A    between atoms: _368  and  _370
REMARK  153  A    between atoms: _370  and  _371
REMARK  154  A    between atoms: _370  and  _373
REMARK  155  A    between atoms: _373  and  _374
REMARK  156  A    between atoms: _379  and  _380
REMARK  157  A    between atoms: _382  and  _384
REMARK  158  A    between atoms: _384  and  _385
REMARK  159  A    between atoms: _384  and  _387
REMARK  160  A    between atoms: _387  and  _388
REMARK                            x       y       z     vdW  Elec       q    Type
REMARK                         _______ _______ _______ _____ _____    ______ ____
ROOT
ATOM      1  CA  THR A   6       2.510  28.148   5.962  0.00  0.00    +0.176 C 
ENDROOT
BRANCH   1   3
ATOM      2  C   PRO A   5       2.778  27.980   3.514  0.00  0.00    +0.241 C 
ATOM      3  N   THR A   6       2.143  27.633   4.633  0.00  0.00    -0.295 N 
ATOM      4  H   THR A   6       1.349  26.965   4.564  0.00  0.00    +0.150 HD
ATOM      5  O   PRO A   5       3.614  28.876   3.481  0.00  0.00    -0.273 OA
BRANCH   2   9
ATOM      6  C   PHE A   4       0.369  25.960   2.511  0.00  0.00    +0.244 C 
ATOM      7  O   PHE A   4       0.829  25.294   3.416  0.00  0.00    -0.273 OA
ATOM      8  N   PRO A   5       1.063  26.939   1.926  0.00  0.00    -0.272 N 
ATOM      9  CA  PRO A   5       2.479  27.174   2.243  0.00  0.00    +0.152 C 
ATOM     10  CB  PRO A   5       2.998  27.897   0.985  0.00  0.00    +0.031 C 
ATOM     11  CG  PRO A   5       1.872  28.614   0.498  0.00  0.00    +0.024 C 
ATOM     12  CD  PRO A   5       0.616  27.763   0.780  0.00  0.00    +0.094 C 
BRANCH   6  13
ATOM     13  CA  PHE A   4      -1.021  25.628   1.950  0.00  0.00    +0.153 C 
BRANCH  13  15
ATOM     14  C   MET A   3      -0.323  23.628   0.807  0.00  0.00    +0.241 C 
ATOM     15  N   PHE A   4      -1.074  24.198   1.724  0.00  0.00    -0.297 N 
ATOM     16  H   PHE A   4      -1.716  23.613   2.296  0.00  0.00    +0.150 HD
ATOM     17  O   MET A   3       0.328  24.273   0.003  0.00  0.00    -0.273 OA
BRANCH  14  18
ATOM     18  CA  MET A   3      -0.284  22.088   0.780  0.00  0.00    +0.149 C 
BRANCH  18  21
ATOM     19  C   VAL A   2      -0.695  21.245   3.037  0.00  0.00    +0.241 C 
ATOM     20  O   VAL A   2       0.413  21.640   3.459  0.00  0.00    -0.273 OA
ATOM     21  N   MET A   3      -1.115  21.409   1.770  0.00  0.00    -0.297 N 
ATOM     22  H   MET A   3      -2.048  21.046   1.490  0.00  0.00    +0.150 HD
BRANCH  19  23
ATOM     23  CA  VAL A   2      -1.671  20.583   4.024  0.00  0.00    +0.148 C 
BRANCH  23  26
ATOM     24  C   ALA A   1      -3.528  22.024   3.478  0.00  0.00    +0.238 C 
ATOM     25  O   ALA A   1      -2.900  23.006   3.831  0.00  0.00    -0.274 OA
ATOM     26  N   VAL A   2      -3.033  20.790   3.583  0.00  0.00    -0.297 N 
ATOM     27  H   VAL A   2      -3.630  19.972   3.346  0.00  0.00    +0.150 HD
BRANCH  24  28
ATOM     28  CA  ALA A   1      -4.929  22.148   2.868  0.00  0.00    +0.145 C 
ATOM     29  CB  ALA A   1      -4.824  22.527   1.423  0.00  0.00    +0.028 C 
BRANCH  28  30
ATOM     30  N   ALA A   1      -5.734  23.131   3.594  0.00  0.00    -0.238 NA
ATOM     31  H   ALA A   1      -5.862  24.080   3.188  0.00  0.00    +0.142 HD
ENDBRANCH  28  30
ENDBRANCH  24  28
ENDBRANCH  23  26
BRANCH  23  32
ATOM     32  CB  VAL A   2      -1.315  19.059   4.229  0.00  0.00    +0.027 C 
ATOM     33  CG2 VAL A   2      -0.094  18.914   5.128  0.00  0.00    +0.002 C 
ATOM     34  CG1 VAL A   2      -1.102  18.320   2.902  0.00  0.00    +0.002 C 
ENDBRANCH  23  32
ENDBRANCH  19  23
ENDBRANCH  18  21
BRANCH  18  35
ATOM     35  CB  MET A   3      -0.557  21.577  -0.618  0.00  0.00    +0.041 C 
BRANCH  35  36
ATOM     36  CG  MET A   3      -0.316  20.118  -0.814  0.00  0.00    +0.060 C 
BRANCH  36  37
ATOM     37  SD  MET A   3       1.304  19.483  -0.306  0.00  0.00    -0.139 S 
ATOM     38  CE  MET A   3       2.408  20.526  -1.256  0.00  0.00    +0.069 C 
ENDBRANCH  36  37
ENDBRANCH  35  36
ENDBRANCH  18  35
ENDBRANCH  14  18
ENDBRANCH  13  15
BRANCH  13  39
ATOM     39  CB  PHE A   4      -2.089  26.036   2.944  0.00  0.00    +0.055 C 
BRANCH  39  40
ATOM     40  CG  PHE A   4      -2.364  27.509   2.965  0.00  0.00    -0.020 A 
ATOM     41  CD2 PHE A   4      -1.846  28.279   3.957  0.00  0.00    -0.004 A 
ATOM     42  CE2 PHE A   4      -2.100  29.627   3.969  0.00  0.00    -0.000 A 
ATOM     43  CZ  PHE A   4      -2.857  30.222   2.949  0.00  0.00    -0.000 A 
ATOM     44  CE1 PHE A   4      -3.374  29.468   1.981  0.00  0.00    -0.000 A 
ATOM     45  CD1 PHE A   4      -3.113  28.108   1.960  0.00  0.00    -0.004 A 
ENDBRANCH  39  40
ENDBRANCH  13  39
ENDBRANCH   6  13
ENDBRANCH   2   9
ENDBRANCH   1   3
BRANCH   1  46
ATOM     46  C   THR A   6       2.480  26.963   6.887  0.00  0.00    +0.243 C 
ATOM     47  N   TYR A   7       3.500  26.847   7.709  0.00  0.00    -0.297 N 
ATOM     48  H   TYR A   7       4.289  27.522   7.653  0.00  0.00    +0.150 HD
ATOM     49  O   THR A   6       1.551  26.167   6.857  0.00  0.00    -0.273 OA
BRANCH  47  50
ATOM     50  CA  TYR A   7       3.530  25.790   8.687  0.00  0.00    +0.153 C 
BRANCH  50  51
ATOM     51  C   TYR A   7       2.643  26.191   9.868  0.00  0.00    +0.241 C 
ATOM     52  O   TYR A   7       2.851  27.244  10.474  0.00  0.00    -0.273 OA
ATOM     53  N   LYS A   8       1.682  25.330  10.178  0.00  0.00    -0.297 N 
ATOM     54  H   LYS A   8       1.535  24.508   9.559  0.00  0.00    +0.150 HD
BRANCH  53  55
ATOM     55  CA  LYS A   8       0.812  25.484  11.360  0.00  0.00    +0.149 C 
BRANCH  55  56
ATOM     56  C   LYS A   8       0.657  24.133  12.042  0.00  0.00    +0.241 C 
ATOM     57  N   TYR A   9       0.959  24.059  13.342  0.00  0.00    -0.298 N 
ATOM     58  H   TYR A   9       1.340  24.889  13.841  0.00  0.00    +0.150 HD
ATOM     59  O   LYS A   8       0.235  23.158  11.399  0.00  0.00    -0.273 OA
BRANCH  57  60
ATOM     60  CA  TYR A   9       0.752  22.817  14.047  0.00  0.00    +0.141 C 
BRANCH  60  61
ATOM     61  C   TYR A   9      -0.735  22.567  14.175  0.00  0.00    +0.227 C 
ATOM     62  O   TYR A   9      -1.496  23.476  14.523  0.00  0.00    -0.286 OA
ENDBRANCH  60  61
BRANCH  60  63
ATOM     63  CB  TYR A   9       1.382  22.789  15.447  0.00  0.00    +0.054 C 
BRANCH  63  64
ATOM     64  CG  TYR A   9       1.070  21.480  16.134  0.00  0.00    -0.020 A 
ATOM     65  CD2 TYR A   9      -0.008  21.368  17.010  0.00  0.00    -0.001 A 
ATOM     66  CE2 TYR A   9      -0.320  20.159  17.608  0.00  0.00    +0.036 A 
ATOM     67  CZ  TYR A   9       0.430  19.040  17.335  0.00  0.00    +0.134 A 
ATOM     68  CE1 TYR A   9       1.498  19.117  16.455  0.00  0.00    +0.036 A 
ATOM     69  CD1 TYR A   9       1.805  20.332  15.856  0.00  0.00    -0.001 A 
BRANCH  67  70
ATOM     70  OH  TYR A   9       0.106  17.844  17.935  0.00  0.00    -0.506 OA
ATOM     71  HH  TYR A   9       0.738  17.144  17.635  0.00  0.00    +0.292 HD
ENDBRANCH  67  70
ENDBRANCH  63  64
ENDBRANCH  60  63
ENDBRANCH  57  60
ENDBRANCH  55  56
BRANCH  55  72
ATOM     72  CB  LYS A   8      -0.568  25.967  10.908  0.00  0.00    +0.029 C 
BRANCH  72  73
ATOM     73  CG  LYS A   8      -1.558  26.240  12.006  0.00  0.00    +0.000 C 
BRANCH  73  74
ATOM     74  CD  LYS A   8      -2.886  26.722  11.390  0.00  0.00    -0.024 C 
BRANCH  74  75
ATOM     75  CE  LYS A   8      -4.031  26.655  12.396  0.00  0.00    -0.086 C 
BRANCH  75  76
ATOM     76  NZ  LYS A   8      -3.669  27.141  13.776  0.00  0.00    +0.380 N 
ATOM     77  HZ1 LYS A   8      -4.499  27.063  14.398  0.00  0.00    -0.089 HD
ATOM     78  HZ2 LYS A   8      -2.894  26.560  14.155  0.00  0.00    -0.089 HD
ATOM     79  HZ3 LYS A   8      -3.365  28.134  13.724  0.00  0.00    -0.089 HD
ENDBRANCH  75  76
ENDBRANCH  74  75
ENDBRANCH  73  74
ENDBRANCH  72  73
ENDBRANCH  55  72
ENDBRANCH  53  55
ENDBRANCH  50  51
BRANCH  50  80
ATOM     80  CB  TYR A   7       4.953  25.517   9.160  0.00  0.00    +0.055 C 
BRANCH  80  81
ATOM     81  CG  TYR A   7       4.943  24.613  10.340  0.00  0.00    -0.020 A 
ATOM     82  CD2 TYR A   7       5.011  25.132  11.639  0.00  0.00    -0.001 A 
ATOM     83  CE2 TYR A   7       4.970  24.299  12.728  0.00  0.00    +0.036 A 
ATOM     84  CZ  TYR A   7       4.817  22.945  12.545  0.00  0.00    +0.134 A 
ATOM     85  CE1 TYR A   7       4.738  22.407  11.249  0.00  0.00    +0.036 A 
ATOM     86  CD1 TYR A   7       4.809  23.248  10.171  0.00  0.00    -0.001 A 
BRANCH  84  87
ATOM     87  OH  TYR A   7       4.765  22.151  13.680  0.00  0.00    -0.506 OA
ATOM     88  HH  TYR A   7       3.999  22.429  14.241  0.00  0.00    +0.292 HD
ENDBRANCH  84  87
ENDBRANCH  80  81
ENDBRANCH  50  80
ENDBRANCH  47  50
ENDBRANCH   1  46
BRANCH   1  89
ATOM     89  CB  THR A   6       1.544  29.218   6.516  0.00  0.00    +0.137 C 
ATOM     90  CG2 THR A   6       1.375  30.338   5.612  0.00  0.00    +0.034 C 
BRANCH  89  91
ATOM     91  OG1 THR A   6       0.231  28.702   6.698  0.00  0.00    -0.382 OA
ATOM     92  HG1 THR A   6       0.260  27.948   7.338  0.00  0.00    +0.210 HD
ENDBRANCH  89  91
ENDBRANCH   1  89
TORSDOF 36
REMARK  Name = ../refined-set-2016/1rmz/1rmz_pocket.pdb
REMARK  160 active torsions:
REMARK  status: ('A' for Active; 'I' for Inactive)
REMARK    1  A    between atoms: _1  and  _3
REMARK    2  A    between atoms: _3  and  _4
REMARK    3  A    between atoms: _3  and  _6
REMARK    4  A    between atoms: _6  and  _7
REMARK    5  A    between atoms: _13  and  _15
REMARK    6  A    between atoms: _15  and  _16
REMARK    7  A    between atoms: _15  and  _18
REMARK    8  A    between atoms: _18  and  _19
REMARK    9  A    between atoms: _22  and  _24
REMARK   10  A    between atoms: _24  and  _25
REMARK   11  A    between atoms: _27  and  _29
REMARK   12  A    between atoms: _29  and  _30
REMARK   13  A    between atoms: _32  and  _34
REMARK   14  A    between atoms: _34  and  _35
REMARK   15  A    between atoms: _34  and  _37
REMARK   16  A    between atoms: _35  and  _36
REMARK   17  A    between atoms: _35  and  _41
REMARK   18  A    between atoms: _36  and  CA_395
REMARK   19  A    between atoms: _37  and  _38
REMARK   20  A    between atoms: _41  and  _43
REMARK   21  A    between atoms: _43  and  _44
REMARK   22  A    between atoms: _43  and  _46
REMARK   23  A    between atoms: _46  and  _47
REMARK   24  A    between atoms: _50  and  _52
REMARK   25  A    between atoms: _52  and  _53
REMARK   26  A    between atoms: _56  and  _58
REMARK   27  A    between atoms: _58  and  _59
REMARK   28  A    between atoms: _58  and  _61
REMARK   29  A    between atoms: _61  and  _62
REMARK   30  A    between atoms: _67  and  _69
REMARK   31  A    between atoms: _69  and  _70
REMARK   32  A    between atoms: _73  and  _75
REMARK   33  A    between atoms: _75  and  _76
REMARK   34  A    between atoms: _75  and  _78
REMARK   35  A    between atoms: _78  and  _79
REMARK   36  A    between atoms: _85  and  _87
REMARK   37  A    between atoms: _87  and  _88
REMARK   38  A    between atoms: _87  and  _90
REMARK   39  A    between atoms: _90  and  _91
REMARK   40  A    between atoms: _96  and  _98
REMARK   41  A    between atoms: _98  and  _99
REMARK   42  A    between atoms: _98  and  _101
REMARK   43  A    between atoms: _101  and  _102
REMARK   44  A    between atoms: _108  and  _110
REMARK   45  A    between atoms: _110  and  _111
REMARK   46  A    between atoms: _110  and  _113
REMARK   47  A    between atoms: _113  and  _114
REMARK   48  A    between atoms: _117  and  _119
REMARK   49  A    between atoms: _119  and  _120
REMARK   50  A    between atoms: _119  and  _122
REMARK   51  A    between atoms: _122  and  _123
REMARK   52  A    between atoms: _123  and  _124
REMARK   53  A    between atoms: _124  and  _126
REMARK   54  A    between atoms: _126  and  CA_395
REMARK   55  A    between atoms: _127  and  _129
REMARK   56  A    between atoms: _129  and  _130
REMARK   57  A    between atoms: _129  and  _132
REMARK   58  A    between atoms: _132  and  _133
REMARK   59  A    between atoms: _143  and  _145
REMARK   60  A    between atoms: _145  and  _146
REMARK   61  A    between atoms: _145  and  _148
REMARK   62  A    between atoms: _148  and  _149
REMARK   63  A    between atoms: _152  and  _154
REMARK   64  A    between atoms: _154  and  _155
REMARK   65  A    between atoms: _154  and  _157
REMARK   66  A    between atoms: _157  and  _158
REMARK   67  A    between atoms: _163  and  _165
REMARK   68  A    between atoms: _165  and  _166
REMARK   69  A    between atoms: _165  and  _168
REMARK   70  A    between atoms: _168  and  _169
REMARK   71  A    between atoms: _172  and  _174
REMARK   72  A    between atoms: _174  and  _175
REMARK   73  A    between atoms: _174  and  _177
REMARK   74  A    between atoms: _177  and  _178
REMARK   75  A    between atoms: _184  and  _186
REMARK   76  A    between atoms: _186  and  _187
REMARK   77  A    between atoms: _186  and  _189
REMARK   78  A    between atoms: _189  and  _190
REMARK   79  A    between atoms: _193  and  _195
REMARK   80  A    between atoms: _195  and  _196
REMARK   81  A    between atoms: _195  and  _198
REMARK   82  A    between atoms: _198  and  _199
REMARK   83  A    between atoms: _202  and  _204
REMARK   84  A    between atoms: _204  and  _205
REMARK   85  A    between atoms: _208  and  _210
REMARK   86  A    between atoms: _210  and  _211
REMARK   87  A    between atoms: _210  and  _213
REMARK   88  A    between atoms: _216  and  _218
REMARK   89  A    between atoms: _218  and  _219
REMARK   90  A    between atoms: _218  and  _221
REMARK   91  A    between atoms: _221  and  _222
REMARK   92  A    between atoms: _226  and  ZN_394
REMARK   93  A    between atoms: _229  and  _230
REMARK   94  A    between atoms: _229  and  _232
REMARK   95  A    between atoms: _232  and  _233
REMARK   96  A    between atoms: _233  and  _234
REMARK   97  A    between atoms: _237  and  _239
REMARK   98  A    between atoms: _239  and  _240
REMARK   99  A    between atoms: _239  and  _242
REMARK  100  A    between atoms: _242  and  _243
REMARK  101  A    between atoms: _246  and  _248
REMARK  102  A    between atoms: _248  and  _249
REMARK  103  A    between atoms: _248  and  _251
REMARK  104  A    between atoms: _251  and  _252
REMARK  105  A    between atoms: _256  and  ZN_394
REMARK  106  A    between atoms: _257  and  _259
REMARK  107  A    between atoms: _259  and  _260
REMARK  108  A    between atoms: _259  and  _262
REMARK  109  A    between atoms: _262  and  _263
REMARK  110  A    between atoms: _265  and  _267
REMARK  111  A    between atoms: _267  and  _268
REMARK  112  A    between atoms: _267  and  _270
REMARK  113  A    between atoms: _270  and  _271
REMARK  114  A    between atoms: _274  and  _276
REMARK  115  A    between atoms: _276  and  _277
REMARK  116  A    between atoms: _279  and  _281
REMARK  117  A    between atoms: _281  and  _282
REMARK  118  A    between atoms: _281  and  _284
REMARK  119  A    between atoms: _284  and  _285
REMARK  120  A    between atoms: _289  and  ZN_394
REMARK  121  A    between atoms: _290  and  _292
REMARK  122  A    between atoms: _292  and  _293
REMARK  123  A    between atoms: _296  and  _298
REMARK  124  A    between atoms: _298  and  _299
REMARK  125  A    between atoms: _298  and  _301
REMARK  126  A    between atoms: _304  and  _306
REMARK  127  A    between atoms: _306  and  _307
REMARK  128  A    between atoms: _306  and  _309
REMARK  129  A    between atoms: _309  and  _310
REMARK  130  A    between atoms: _310  and  _311
REMARK  131  A    between atoms: _313  and  _315
REMARK  132  A    between atoms: _315  and  _316
REMARK  133  A    between atoms: _315  and  _318
REMARK  134  A    between atoms: _318  and  _319
REMARK  135  A    between atoms: _326  and  _327
REMARK  136  A    between atoms: _332  and  _334
REMARK  137  A    between atoms: _334  and  _335
REMARK  138  A    between atoms: _334  and  _337
REMARK  139  A    between atoms: _337  and  _338
REMARK  140  A    between atoms: _341  and  _343
REMARK  141  A    between atoms: _343  and  _344
REMARK  142  A    between atoms: _343  and  _346
REMARK  143  A    between atoms: _346  and  _347
REMARK  144  A    between atoms: _352  and  _353
REMARK  145  A    between atoms: _355  and  _357
REMARK  146  A    between atoms: _357  and  _358
REMARK  147  A    between atoms: _357  and  _360
REMARK  148  A    between atoms: _360  and  _361
REMARK  149  A    between atoms: _361  and  _362
REMARK  150  A    between atoms: _362  and  _363
REMARK  151  A    between atoms: _363  and  _364
REMARK  152  A    between atoms: _368  and  _370
REMARK  153  A    between atoms: _370  and  _371
REMARK  154  A    between atoms: _370  and  _373
REMARK  155  A    between atoms: _373  and  _374
REMARK  156  A    between atoms: _379  and  _380
REMARK  157  A    between atoms: _382  and  _384
REMARK  158  A    between atoms: _384  and  _385
REMARK  159  A    between atoms: _384  and  _387
REMARK  160  A    between atoms: _387  and  _388
REMARK                            x       y       z     vdW  Elec       q    Type
REMARK                         _______ _______ _______ _____ _____    ______ ____
ROOT
ATOM      1  CB  PHE A   1      -3.343  15.316  10.981  0.00  0.00    +0.051 C 
ENDROOT
BRANCH   1   2
ATOM      2  CG  PHE A   1      -2.932  15.674   9.572  0.00  0.00    -0.020 A 
ATOM      3  CD2 PHE A   1      -2.841  16.998   9.187  0.00  0.00    -0.004 A 
ATOM      4  CE2 PHE A   1      -2.500  17.335   7.881  0.00  0.00    -0.000 A 
ATOM      5  CZ  PHE A   1      -2.278  16.347   6.954  0.00  0.00    -0.000 A 
ATOM      6  CE1 PHE A   1      -2.372  15.018   7.331  0.00  0.00    -0.000 A 
ATOM      7  CD1 PHE A   1      -2.716  14.690   8.642  0.00  0.00    -0.004 A 
ENDBRANCH   1   2
BRANCH   1   8
ATOM      8  CA  PHE A   1      -4.860  15.350  11.187  0.00  0.00    +0.137 C 
BRANCH   8   9
ATOM      9  N   PHE A   1      -5.210  14.753  12.471  0.00  0.00    -0.239 NA
ATOM     10  H   PHE A   1      -4.457  14.360  13.071  0.00  0.00    +0.142 HD
ENDBRANCH   8   9
BRANCH   8  11
ATOM     11  C   PHE A   1      -5.559  14.662  10.019  0.00  0.00    +0.224 C 
ATOM     12  O   PHE A   1      -5.624  13.447   9.949  0.00  0.00    -0.287 OA
ENDBRANCH   8  11
ENDBRANCH   1   8
TORSDOF 4
REMARK  Name = ../refined-set-2016/1rmz/1rmz_pocket.pdb
REMARK  160 active torsions:
REMARK  status: ('A' for Active; 'I' for Inactive)
REMARK    1  A    between atoms: _1  and  _3
REMARK    2  A    between atoms: _3  and  _4
REMARK    3  A    between atoms: _3  and  _6
REMARK    4  A    between atoms: _6  and  _7
REMARK    5  A    between atoms: _13  and  _15
REMARK    6  A    between atoms: _15  and  _16
REMARK    7  A    between atoms: _15  and  _18
REMARK    8  A    between atoms: _18  and  _19
REMARK    9  A    between atoms: _22  and  _24
REMARK   10  A    between atoms: _24  and  _25
REMARK   11  A    between atoms: _27  and  _29
REMARK   12  A    between atoms: _29  and  _30
REMARK   13  A    between atoms: _32  and  _34
REMARK   14  A    between atoms: _34  and  _35
REMARK   15  A    between atoms: _34  and  _37
REMARK   16  A    between atoms: _35  and  _36
REMARK   17  A    between atoms: _35  and  _41
REMARK   18  A    between atoms: _36  and  CA_395
REMARK   19  A    between atoms: _37  and  _38
REMARK   20  A    between atoms: _41  and  _43
REMARK   21  A    between atoms: _43  and  _44
REMARK   22  A    between atoms: _43  and  _46
REMARK   23  A    between atoms: _46  and  _47
REMARK   24  A    between atoms: _50  and  _52
REMARK   25  A    between atoms: _52  and  _53
REMARK   26  A    between atoms: _56  and  _58
REMARK   27  A    between atoms: _58  and  _59
REMARK   28  A    between atoms: _58  and  _61
REMARK   29  A    between atoms: _61  and  _62
REMARK   30  A    between atoms: _67  and  _69
REMARK   31  A    between atoms: _69  and  _70
REMARK   32  A    between atoms: _73  and  _75
REMARK   33  A    between atoms: _75  and  _76
REMARK   34  A    between atoms: _75  and  _78
REMARK   35  A    between atoms: _78  and  _79
REMARK   36  A    between atoms: _85  and  _87
REMARK   37  A    between atoms: _87  and  _88
REMARK   38  A    between atoms: _87  and  _90
REMARK   39  A    between atoms: _90  and  _91
REMARK   40  A    between atoms: _96  and  _98
REMARK   41  A    between atoms: _98  and  _99
REMARK   42  A    between atoms: _98  and  _101
REMARK   43  A    between atoms: _101  and  _102
REMARK   44  A    between atoms: _108  and  _110
REMARK   45  A    between atoms: _110  and  _111
REMARK   46  A    between atoms: _110  and  _113
REMARK   47  A    between atoms: _113  and  _114
REMARK   48  A    between atoms: _117  and  _119
REMARK   49  A    between atoms: _119  and  _120
REMARK   50  A    between atoms: _119  and  _122
REMARK   51  A    between atoms: _122  and  _123
REMARK   52  A    between atoms: _123  and  _124
REMARK   53  A    between atoms: _124  and  _126
REMARK   54  A    between atoms: _126  and  CA_395
REMARK   55  A    between atoms: _127  and  _129
REMARK   56  A    between atoms: _129  and  _130
REMARK   57  A    between atoms: _129  and  _132
REMARK   58  A    between atoms: _132  and  _133
REMARK   59  A    between atoms: _143  and  _145
REMARK   60  A    between atoms: _145  and  _146
REMARK   61  A    between atoms: _145  and  _148
REMARK   62  A    between atoms: _148  and  _149
REMARK   63  A    between atoms: _152  and  _154
REMARK   64  A    between atoms: _154  and  _155
REMARK   65  A    between atoms: _154  and  _157
REMARK   66  A    between atoms: _157  and  _158
REMARK   67  A    between atoms: _163  and  _165
REMARK   68  A    between atoms: _165  and  _166
REMARK   69  A    between atoms: _165  and  _168
REMARK   70  A    between atoms: _168  and  _169
REMARK   71  A    between atoms: _172  and  _174
REMARK   72  A    between atoms: _174  and  _175
REMARK   73  A    between atoms: _174  and  _177
REMARK   74  A    between atoms: _177  and  _178
REMARK   75  A    between atoms: _184  and  _186
REMARK   76  A    between atoms: _186  and  _187
REMARK   77  A    between atoms: _186  and  _189
REMARK   78  A    between atoms: _189  and  _190
REMARK   79  A    between atoms: _193  and  _195
REMARK   80  A    between atoms: _195  and  _196
REMARK   81  A    between atoms: _195  and  _198
REMARK   82  A    between atoms: _198  and  _199
REMARK   83  A    between atoms: _202  and  _204
REMARK   84  A    between atoms: _204  and  _205
REMARK   85  A    between atoms: _208  and  _210
REMARK   86  A    between atoms: _210  and  _211
REMARK   87  A    between atoms: _210  and  _213
REMARK   88  A    between atoms: _216  and  _218
REMARK   89  A    between atoms: _218  and  _219
REMARK   90  A    between atoms: _218  and  _221
REMARK   91  A    between atoms: _221  and  _222
REMARK   92  A    between atoms: _226  and  ZN_394
REMARK   93  A    between atoms: _229  and  _230
REMARK   94  A    between atoms: _229  and  _232
REMARK   95  A    between atoms: _232  and  _233
REMARK   96  A    between atoms: _233  and  _234
REMARK   97  A    between atoms: _237  and  _239
REMARK   98  A    between atoms: _239  and  _240
REMARK   99  A    between atoms: _239  and  _242
REMARK  100  A    between atoms: _242  and  _243
REMARK  101  A    between atoms: _246  and  _248
REMARK  102  A    between atoms: _248  and  _249
REMARK  103  A    between atoms: _248  and  _251
REMARK  104  A    between atoms: _251  and  _252
REMARK  105  A    between atoms: _256  and  ZN_394
REMARK  106  A    between atoms: _257  and  _259
REMARK  107  A    between atoms: _259  and  _260
REMARK  108  A    between atoms: _259  and  _262
REMARK  109  A    between atoms: _262  and  _263
REMARK  110  A    between atoms: _265  and  _267
REMARK  111  A    between atoms: _267  and  _268
REMARK  112  A    between atoms: _267  and  _270
REMARK  113  A    between atoms: _270  and  _271
REMARK  114  A    between atoms: _274  and  _276
REMARK  115  A    between atoms: _276  and  _277
REMARK  116  A    between atoms: _279  and  _281
REMARK  117  A    between atoms: _281  and  _282
REMARK  118  A    between atoms: _281  and  _284
REMARK  119  A    between atoms: _284  and  _285
REMARK  120  A    between atoms: _289  and  ZN_394
REMARK  121  A    between atoms: _290  and  _292
REMARK  122  A    between atoms: _292  and  _293
REMARK  123  A    between atoms: _296  and  _298
REMARK  124  A    between atoms: _298  and  _299
REMARK  125  A    between atoms: _298  and  _301
REMARK  126  A    between atoms: _304  and  _306
REMARK  127  A    between atoms: _306  and  _307
REMARK  128  A    between atoms: _306  and  _309
REMARK  129  A    between atoms: _309  and  _310
REMARK  130  A    between atoms: _310  and  _311
REMARK  131  A    between atoms: _313  and  _315
REMARK  132  A    between atoms: _315  and  _316
REMARK  133  A    between atoms: _315  and  _318
REMARK  134  A    between atoms: _318  and  _319
REMARK  135  A    between atoms: _326  and  _327
REMARK  136  A    between atoms: _332  and  _334
REMARK  137  A    between atoms: _334  and  _335
REMARK  138  A    between atoms: _334  and  _337
REMARK  139  A    between atoms: _337  and  _338
REMARK  140  A    between atoms: _341  and  _343
REMARK  141  A    between atoms: _343  and  _344
REMARK  142  A    between atoms: _343  and  _346
REMARK  143  A    between atoms: _346  and  _347
REMARK  144  A    between atoms: _352  and  _353
REMARK  145  A    between atoms: _355  and  _357
REMARK  146  A    between atoms: _357  and  _358
REMARK  147  A    between atoms: _357  and  _360
REMARK  148  A    between atoms: _360  and  _361
REMARK  149  A    between atoms: _361  and  _362
REMARK  150  A    between atoms: _362  and  _363
REMARK  151  A    between atoms: _363  and  _364
REMARK  152  A    between atoms: _368  and  _370
REMARK  153  A    between atoms: _370  and  _371
REMARK  154  A    between atoms: _370  and  _373
REMARK  155  A    between atoms: _373  and  _374
REMARK  156  A    between atoms: _379  and  _380
REMARK  157  A    between atoms: _382  and  _384
REMARK  158  A    between atoms: _384  and  _385
REMARK  159  A    between atoms: _384  and  _387
REMARK  160  A    between atoms: _387  and  _388
REMARK                            x       y       z     vdW  Elec       q    Type
REMARK                         _______ _______ _______ _____ _____    ______ ____
ROOT
ATOM      1  O   HOH     1       9.295  22.737  -1.923  0.00  0.00    +0.000 OA
ENDROOT
TORSDOF 0
REMARK  Name = ../refined-set-2016/1rmz/1rmz_pocket.pdb
REMARK  160 active torsions:
REMARK  status: ('A' for Active; 'I' for Inactive)
REMARK    1  A    between atoms: _1  and  _3
REMARK    2  A    between atoms: _3  and  _4
REMARK    3  A    between atoms: _3  and  _6
REMARK    4  A    between atoms: _6  and  _7
REMARK    5  A    between atoms: _13  and  _15
REMARK    6  A    between atoms: _15  and  _16
REMARK    7  A    between atoms: _15  and  _18
REMARK    8  A    between atoms: _18  and  _19
REMARK    9  A    between atoms: _22  and  _24
REMARK   10  A    between atoms: _24  and  _25
REMARK   11  A    between atoms: _27  and  _29
REMARK   12  A    between atoms: _29  and  _30
REMARK   13  A    between atoms: _32  and  _34
REMARK   14  A    between atoms: _34  and  _35
REMARK   15  A    between atoms: _34  and  _37
REMARK   16  A    between atoms: _35  and  _36
REMARK   17  A    between atoms: _35  and  _41
REMARK   18  A    between atoms: _36  and  CA_395
REMARK   19  A    between atoms: _37  and  _38
REMARK   20  A    between atoms: _41  and  _43
REMARK   21  A    between atoms: _43  and  _44
REMARK   22  A    between atoms: _43  and  _46
REMARK   23  A    between atoms: _46  and  _47
REMARK   24  A    between atoms: _50  and  _52
REMARK   25  A    between atoms: _52  and  _53
REMARK   26  A    between atoms: _56  and  _58
REMARK   27  A    between atoms: _58  and  _59
REMARK   28  A    between atoms: _58  and  _61
REMARK   29  A    between atoms: _61  and  _62
REMARK   30  A    between atoms: _67  and  _69
REMARK   31  A    between atoms: _69  and  _70
REMARK   32  A    between atoms: _73  and  _75
REMARK   33  A    between atoms: _75  and  _76
REMARK   34  A    between atoms: _75  and  _78
REMARK   35  A    between atoms: _78  and  _79
REMARK   36  A    between atoms: _85  and  _87
REMARK   37  A    between atoms: _87  and  _88
REMARK   38  A    between atoms: _87  and  _90
REMARK   39  A    between atoms: _90  and  _91
REMARK   40  A    between atoms: _96  and  _98
REMARK   41  A    between atoms: _98  and  _99
REMARK   42  A    between atoms: _98  and  _101
REMARK   43  A    between atoms: _101  and  _102
REMARK   44  A    between atoms: _108  and  _110
REMARK   45  A    between atoms: _110  and  _111
REMARK   46  A    between atoms: _110  and  _113
REMARK   47  A    between atoms: _113  and  _114
REMARK   48  A    between atoms: _117  and  _119
REMARK   49  A    between atoms: _119  and  _120
REMARK   50  A    between atoms: _119  and  _122
REMARK   51  A    between atoms: _122  and  _123
REMARK   52  A    between atoms: _123  and  _124
REMARK   53  A    between atoms: _124  and  _126
REMARK   54  A    between atoms: _126  and  CA_395
REMARK   55  A    between atoms: _127  and  _129
REMARK   56  A    between atoms: _129  and  _130
REMARK   57  A    between atoms: _129  and  _132
REMARK   58  A    between atoms: _132  and  _133
REMARK   59  A    between atoms: _143  and  _145
REMARK   60  A    between atoms: _145  and  _146
REMARK   61  A    between atoms: _145  and  _148
REMARK   62  A    between atoms: _148  and  _149
REMARK   63  A    between atoms: _152  and  _154
REMARK   64  A    between atoms: _154  and  _155
REMARK   65  A    between atoms: _154  and  _157
REMARK   66  A    between atoms: _157  and  _158
REMARK   67  A    between atoms: _163  and  _165
REMARK   68  A    between atoms: _165  and  _166
REMARK   69  A    between atoms: _165  and  _168
REMARK   70  A    between atoms: _168  and  _169
REMARK   71  A    between atoms: _172  and  _174
REMARK   72  A    between atoms: _174  and  _175
REMARK   73  A    between atoms: _174  and  _177
REMARK   74  A    between atoms: _177  and  _178
REMARK   75  A    between atoms: _184  and  _186
REMARK   76  A    between atoms: _186  and  _187
REMARK   77  A    between atoms: _186  and  _189
REMARK   78  A    between atoms: _189  and  _190
REMARK   79  A    between atoms: _193  and  _195
REMARK   80  A    between atoms: _195  and  _196
REMARK   81  A    between atoms: _195  and  _198
REMARK   82  A    between atoms: _198  and  _199
REMARK   83  A    between atoms: _202  and  _204
REMARK   84  A    between atoms: _204  and  _205
REMARK   85  A    between atoms: _208  and  _210
REMARK   86  A    between atoms: _210  and  _211
REMARK   87  A    between atoms: _210  and  _213
REMARK   88  A    between atoms: _216  and  _218
REMARK   89  A    between atoms: _218  and  _219
REMARK   90  A    between atoms: _218  and  _221
REMARK   91  A    between atoms: _221  and  _222
REMARK   92  A    between atoms: _226  and  ZN_394
REMARK   93  A    between atoms: _229  and  _230
REMARK   94  A    between atoms: _229  and  _232
REMARK   95  A    between atoms: _232  and  _233
REMARK   96  A    between atoms: _233  and  _234
REMARK   97  A    between atoms: _237  and  _239
REMARK   98  A    between atoms: _239  and  _240
REMARK   99  A    between atoms: _239  and  _242
REMARK  100  A    between atoms: _242  and  _243
REMARK  101  A    between atoms: _246  and  _248
REMARK  102  A    between atoms: _248  and  _249
REMARK  103  A    between atoms: _248  and  _251
REMARK  104  A    between atoms: _251  and  _252
REMARK  105  A    between atoms: _256  and  ZN_394
REMARK  106  A    between atoms: _257  and  _259
REMARK  107  A    between atoms: _259  and  _260
REMARK  108  A    between atoms: _259  and  _262
REMARK  109  A    between atoms: _262  and  _263
REMARK  110  A    between atoms: _265  and  _267
REMARK  111  A    between atoms: _267  and  _268
REMARK  112  A    between atoms: _267  and  _270
REMARK  113  A    between atoms: _270  and  _271
REMARK  114  A    between atoms: _274  and  _276
REMARK  115  A    between atoms: _276  and  _277
REMARK  116  A    between atoms: _279  and  _281
REMARK  117  A    between atoms: _281  and  _282
REMARK  118  A    between atoms: _281  and  _284
REMARK  119  A    between atoms: _284  and  _285
REMARK  120  A    between atoms: _289  and  ZN_394
REMARK  121  A    between atoms: _290  and  _292
REMARK  122  A    between atoms: _292  and  _293
REMARK  123  A    between atoms: _296  and  _298
REMARK  124  A    between atoms: _298  and  _299
REMARK  125  A    between atoms: _298  and  _301
REMARK  126  A    between atoms: _304  and  _306
REMARK  127  A    between atoms: _306  and  _307
REMARK  128  A    between atoms: _306  and  _309
REMARK  129  A    between atoms: _309  and  _310
REMARK  130  A    between atoms: _310  and  _311
REMARK  131  A    between atoms: _313  and  _315
REMARK  132  A    between atoms: _315  and  _316
REMARK  133  A    between atoms: _315  and  _318
REMARK  134  A    between atoms: _318  and  _319
REMARK  135  A    between atoms: _326  and  _327
REMARK  136  A    between atoms: _332  and  _334
REMARK  137  A    between atoms: _334  and  _335
REMARK  138  A    between atoms: _334  and  _337
REMARK  139  A    between atoms: _337  and  _338
REMARK  140  A    between atoms: _341  and  _343
REMARK  141  A    between atoms: _343  and  _344
REMARK  142  A    between atoms: _343  and  _346
REMARK  143  A    between atoms: _346  and  _347
REMARK  144  A    between atoms: _352  and  _353
REMARK  145  A    between atoms: _355  and  _357
REMARK  146  A    between atoms: _357  and  _358
REMARK  147  A    between atoms: _357  and  _360
REMARK  148  A    between atoms: _360  and  _361
REMARK  149  A    between atoms: _361  and  _362
REMARK  150  A    between atoms: _362  and  _363
REMARK  151  A    between atoms: _363  and  _364
REMARK  152  A    between atoms: _368  and  _370
REMARK  153  A    between atoms: _370  and  _371
REMARK  154  A    between atoms: _370  and  _373
REMARK  155  A    between atoms: _373  and  _374
REMARK  156  A    between atoms: _379  and  _380
REMARK  157  A    between atoms: _382  and  _384
REMARK  158  A    between atoms: _384  and  _385
REMARK  159  A    between atoms: _384  and  _387
REMARK  160  A    between atoms: _387  and  _388
REMARK                            x       y       z     vdW  Elec       q    Type
REMARK                         _______ _______ _______ _____ _____    ______ ____
ROOT
ATOM      1  O   HOH     1       0.249  23.599   5.598  0.00  0.00    +0.000 OA
ENDROOT
TORSDOF 0
REMARK  Name = ../refined-set-2016/1rmz/1rmz_pocket.pdb
REMARK  160 active torsions:
REMARK  status: ('A' for Active; 'I' for Inactive)
REMARK    1  A    between atoms: _1  and  _3
REMARK    2  A    between atoms: _3  and  _4
REMARK    3  A    between atoms: _3  and  _6
REMARK    4  A    between atoms: _6  and  _7
REMARK    5  A    between atoms: _13  and  _15
REMARK    6  A    between atoms: _15  and  _16
REMARK    7  A    between atoms: _15  and  _18
REMARK    8  A    between atoms: _18  and  _19
REMARK    9  A    between atoms: _22  and  _24
REMARK   10  A    between atoms: _24  and  _25
REMARK   11  A    between atoms: _27  and  _29
REMARK   12  A    between atoms: _29  and  _30
REMARK   13  A    between atoms: _32  and  _34
REMARK   14  A    between atoms: _34  and  _35
REMARK   15  A    between atoms: _34  and  _37
REMARK   16  A    between atoms: _35  and  _36
REMARK   17  A    between atoms: _35  and  _41
REMARK   18  A    between atoms: _36  and  CA_395
REMARK   19  A    between atoms: _37  and  _38
REMARK   20  A    between atoms: _41  and  _43
REMARK   21  A    between atoms: _43  and  _44
REMARK   22  A    between atoms: _43  and  _46
REMARK   23  A    between atoms: _46  and  _47
REMARK   24  A    between atoms: _50  and  _52
REMARK   25  A    between atoms: _52  and  _53
REMARK   26  A    between atoms: _56  and  _58
REMARK   27  A    between atoms: _58  and  _59
REMARK   28  A    between atoms: _58  and  _61
REMARK   29  A    between atoms: _61  and  _62
REMARK   30  A    between atoms: _67  and  _69
REMARK   31  A    between atoms: _69  and  _70
REMARK   32  A    between atoms: _73  and  _75
REMARK   33  A    between atoms: _75  and  _76
REMARK   34  A    between atoms: _75  and  _78
REMARK   35  A    between atoms: _78  and  _79
REMARK   36  A    between atoms: _85  and  _87
REMARK   37  A    between atoms: _87  and  _88
REMARK   38  A    between atoms: _87  and  _90
REMARK   39  A    between atoms: _90  and  _91
REMARK   40  A    between atoms: _96  and  _98
REMARK   41  A    between atoms: _98  and  _99
REMARK   42  A    between atoms: _98  and  _101
REMARK   43  A    between atoms: _101  and  _102
REMARK   44  A    between atoms: _108  and  _110
REMARK   45  A    between atoms: _110  and  _111
REMARK   46  A    between atoms: _110  and  _113
REMARK   47  A    between atoms: _113  and  _114
REMARK   48  A    between atoms: _117  and  _119
REMARK   49  A    between atoms: _119  and  _120
REMARK   50  A    between atoms: _119  and  _122
REMARK   51  A    between atoms: _122  and  _123
REMARK   52  A    between atoms: _123  and  _124
REMARK   53  A    between atoms: _124  and  _126
REMARK   54  A    between atoms: _126  and  CA_395
REMARK   55  A    between atoms: _127  and  _129
REMARK   56  A    between atoms: _129  and  _130
REMARK   57  A    between atoms: _129  and  _132
REMARK   58  A    between atoms: _132  and  _133
REMARK   59  A    between atoms: _143  and  _145
REMARK   60  A    between atoms: _145  and  _146
REMARK   61  A    between atoms: _145  and  _148
REMARK   62  A    between atoms: _148  and  _149
REMARK   63  A    between atoms: _152  and  _154
REMARK   64  A    between atoms: _154  and  _155
REMARK   65  A    between atoms: _154  and  _157
REMARK   66  A    between atoms: _157  and  _158
REMARK   67  A    between atoms: _163  and  _165
REMARK   68  A    between atoms: _165  and  _166
REMARK   69  A    between atoms: _165  and  _168
REMARK   70  A    between atoms: _168  and  _169
REMARK   71  A    between atoms: _172  and  _174
REMARK   72  A    between atoms: _174  and  _175
REMARK   73  A    between atoms: _174  and  _177
REMARK   74  A    between atoms: _177  and  _178
REMARK   75  A    between atoms: _184  and  _186
REMARK   76  A    between atoms: _186  and  _187
REMARK   77  A    between atoms: _186  and  _189
REMARK   78  A    between atoms: _189  and  _190
REMARK   79  A    between atoms: _193  and  _195
REMARK   80  A    between atoms: _195  and  _196
REMARK   81  A    between atoms: _195  and  _198
REMARK   82  A    between atoms: _198  and  _199
REMARK   83  A    between atoms: _202  and  _204
REMARK   84  A    between atoms: _204  and  _205
REMARK   85  A    between atoms: _208  and  _210
REMARK   86  A    between atoms: _210  and  _211
REMARK   87  A    between atoms: _210  and  _213
REMARK   88  A    between atoms: _216  and  _218
REMARK   89  A    between atoms: _218  and  _219
REMARK   90  A    between atoms: _218  and  _221
REMARK   91  A    between atoms: _221  and  _222
REMARK   92  A    between atoms: _226  and  ZN_394
REMARK   93  A    between atoms: _229  and  _230
REMARK   94  A    between atoms: _229  and  _232
REMARK   95  A    between atoms: _232  and  _233
REMARK   96  A    between atoms: _233  and  _234
REMARK   97  A    between atoms: _237  and  _239
REMARK   98  A    between atoms: _239  and  _240
REMARK   99  A    between atoms: _239  and  _242
REMARK  100  A    between atoms: _242  and  _243
REMARK  101  A    between atoms: _246  and  _248
REMARK  102  A    between atoms: _248  and  _249
REMARK  103  A    between atoms: _248  and  _251
REMARK  104  A    between atoms: _251  and  _252
REMARK  105  A    between atoms: _256  and  ZN_394
REMARK  106  A    between atoms: _257  and  _259
REMARK  107  A    between atoms: _259  and  _260
REMARK  108  A    between atoms: _259  and  _262
REMARK  109  A    between atoms: _262  and  _263
REMARK  110  A    between atoms: _265  and  _267
REMARK  111  A    between atoms: _267  and  _268
REMARK  112  A    between atoms: _267  and  _270
REMARK  113  A    between atoms: _270  and  _271
REMARK  114  A    between atoms: _274  and  _276
REMARK  115  A    between atoms: _276  and  _277
REMARK  116  A    between atoms: _279  and  _281
REMARK  117  A    between atoms: _281  and  _282
REMARK  118  A    between atoms: _281  and  _284
REMARK  119  A    between atoms: _284  and  _285
REMARK  120  A    between atoms: _289  and  ZN_394
REMARK  121  A    between atoms: _290  and  _292
REMARK  122  A    between atoms: _292  and  _293
REMARK  123  A    between atoms: _296  and  _298
REMARK  124  A    between atoms: _298  and  _299
REMARK  125  A    between atoms: _298  and  _301
REMARK  126  A    between atoms: _304  and  _306
REMARK  127  A    between atoms: _306  and  _307
REMARK  128  A    between atoms: _306  and  _309
REMARK  129  A    between atoms: _309  and  _310
REMARK  130  A    between atoms: _310  and  _311
REMARK  131  A    between atoms: _313  and  _315
REMARK  132  A    between atoms: _315  and  _316
REMARK  133  A    between atoms: _315  and  _318
REMARK  134  A    between atoms: _318  and  _319
REMARK  135  A    between atoms: _326  and  _327
REMARK  136  A    between atoms: _332  and  _334
REMARK  137  A    between atoms: _334  and  _335
REMARK  138  A    between atoms: _334  and  _337
REMARK  139  A    between atoms: _337  and  _338
REMARK  140  A    between atoms: _341  and  _343
REMARK  141  A    between atoms: _343  and  _344
REMARK  142  A    between atoms: _343  and  _346
REMARK  143  A    between atoms: _346  and  _347
REMARK  144  A    between atoms: _352  and  _353
REMARK  145  A    between atoms: _355  and  _357
REMARK  146  A    between atoms: _357  and  _358
REMARK  147  A    between atoms: _357  and  _360
REMARK  148  A    between atoms: _360  and  _361
REMARK  149  A    between atoms: _361  and  _362
REMARK  150  A    between atoms: _362  and  _363
REMARK  151  A    between atoms: _363  and  _364
REMARK  152  A    between atoms: _368  and  _370
REMARK  153  A    between atoms: _370  and  _371
REMARK  154  A    between atoms: _370  and  _373
REMARK  155  A    between atoms: _373  and  _374
REMARK  156  A    between atoms: _379  and  _380
REMARK  157  A    between atoms: _382  and  _384
REMARK  158  A    between atoms: _384  and  _385
REMARK  159  A    between atoms: _384  and  _387
REMARK  160  A    between atoms: _387  and  _388
REMARK                            x       y       z     vdW  Elec       q    Type
REMARK                         _______ _______ _______ _____ _____    ______ ____
ROOT
ATOM      1  O   HOH     1       1.126  23.258   8.230  0.00  0.00    +0.000 OA
ENDROOT
TORSDOF 0
REMARK  Name = ../refined-set-2016/1rmz/1rmz_pocket.pdb
REMARK  160 active torsions:
REMARK  status: ('A' for Active; 'I' for Inactive)
REMARK    1  A    between atoms: _1  and  _3
REMARK    2  A    between atoms: _3  and  _4
REMARK    3  A    between atoms: _3  and  _6
REMARK    4  A    between atoms: _6  and  _7
REMARK    5  A    between atoms: _13  and  _15
REMARK    6  A    between atoms: _15  and  _16
REMARK    7  A    between atoms: _15  and  _18
REMARK    8  A    between atoms: _18  and  _19
REMARK    9  A    between atoms: _22  and  _24
REMARK   10  A    between atoms: _24  and  _25
REMARK   11  A    between atoms: _27  and  _29
REMARK   12  A    between atoms: _29  and  _30
REMARK   13  A    between atoms: _32  and  _34
REMARK   14  A    between atoms: _34  and  _35
REMARK   15  A    between atoms: _34  and  _37
REMARK   16  A    between atoms: _35  and  _36
REMARK   17  A    between atoms: _35  and  _41
REMARK   18  A    between atoms: _36  and  CA_395
REMARK   19  A    between atoms: _37  and  _38
REMARK   20  A    between atoms: _41  and  _43
REMARK   21  A    between atoms: _43  and  _44
REMARK   22  A    between atoms: _43  and  _46
REMARK   23  A    between atoms: _46  and  _47
REMARK   24  A    between atoms: _50  and  _52
REMARK   25  A    between atoms: _52  and  _53
REMARK   26  A    between atoms: _56  and  _58
REMARK   27  A    between atoms: _58  and  _59
REMARK   28  A    between atoms: _58  and  _61
REMARK   29  A    between atoms: _61  and  _62
REMARK   30  A    between atoms: _67  and  _69
REMARK   31  A    between atoms: _69  and  _70
REMARK   32  A    between atoms: _73  and  _75
REMARK   33  A    between atoms: _75  and  _76
REMARK   34  A    between atoms: _75  and  _78
REMARK   35  A    between atoms: _78  and  _79
REMARK   36  A    between atoms: _85  and  _87
REMARK   37  A    between atoms: _87  and  _88
REMARK   38  A    between atoms: _87  and  _90
REMARK   39  A    between atoms: _90  and  _91
REMARK   40  A    between atoms: _96  and  _98
REMARK   41  A    between atoms: _98  and  _99
REMARK   42  A    between atoms: _98  and  _101
REMARK   43  A    between atoms: _101  and  _102
REMARK   44  A    between atoms: _108  and  _110
REMARK   45  A    between atoms: _110  and  _111
REMARK   46  A    between atoms: _110  and  _113
REMARK   47  A    between atoms: _113  and  _114
REMARK   48  A    between atoms: _117  and  _119
REMARK   49  A    between atoms: _119  and  _120
REMARK   50  A    between atoms: _119  and  _122
REMARK   51  A    between atoms: _122  and  _123
REMARK   52  A    between atoms: _123  and  _124
REMARK   53  A    between atoms: _124  and  _126
REMARK   54  A    between atoms: _126  and  CA_395
REMARK   55  A    between atoms: _127  and  _129
REMARK   56  A    between atoms: _129  and  _130
REMARK   57  A    between atoms: _129  and  _132
REMARK   58  A    between atoms: _132  and  _133
REMARK   59  A    between atoms: _143  and  _145
REMARK   60  A    between atoms: _145  and  _146
REMARK   61  A    between atoms: _145  and  _148
REMARK   62  A    between atoms: _148  and  _149
REMARK   63  A    between atoms: _152  and  _154
REMARK   64  A    between atoms: _154  and  _155
REMARK   65  A    between atoms: _154  and  _157
REMARK   66  A    between atoms: _157  and  _158
REMARK   67  A    between atoms: _163  and  _165
REMARK   68  A    between atoms: _165  and  _166
REMARK   69  A    between atoms: _165  and  _168
REMARK   70  A    between atoms: _168  and  _169
REMARK   71  A    between atoms: _172  and  _174
REMARK   72  A    between atoms: _174  and  _175
REMARK   73  A    between atoms: _174  and  _177
REMARK   74  A    between atoms: _177  and  _178
REMARK   75  A    between atoms: _184  and  _186
REMARK   76  A    between atoms: _186  and  _187
REMARK   77  A    between atoms: _186  and  _189
REMARK   78  A    between atoms: _189  and  _190
REMARK   79  A    between atoms: _193  and  _195
REMARK   80  A    between atoms: _195  and  _196
REMARK   81  A    between atoms: _195  and  _198
REMARK   82  A    between atoms: _198  and  _199
REMARK   83  A    between atoms: _202  and  _204
REMARK   84  A    between atoms: _204  and  _205
REMARK   85  A    between atoms: _208  and  _210
REMARK   86  A    between atoms: _210  and  _211
REMARK   87  A    between atoms: _210  and  _213
REMARK   88  A    between atoms: _216  and  _218
REMARK   89  A    between atoms: _218  and  _219
REMARK   90  A    between atoms: _218  and  _221
REMARK   91  A    between atoms: _221  and  _222
REMARK   92  A    between atoms: _226  and  ZN_394
REMARK   93  A    between atoms: _229  and  _230
REMARK   94  A    between atoms: _229  and  _232
REMARK   95  A    between atoms: _232  and  _233
REMARK   96  A    between atoms: _233  and  _234
REMARK   97  A    between atoms: _237  and  _239
REMARK   98  A    between atoms: _239  and  _240
REMARK   99  A    between atoms: _239  and  _242
REMARK  100  A    between atoms: _242  and  _243
REMARK  101  A    between atoms: _246  and  _248
REMARK  102  A    between atoms: _248  and  _249
REMARK  103  A    between atoms: _248  and  _251
REMARK  104  A    between atoms: _251  and  _252
REMARK  105  A    between atoms: _256  and  ZN_394
REMARK  106  A    between atoms: _257  and  _259
REMARK  107  A    between atoms: _259  and  _260
REMARK  108  A    between atoms: _259  and  _262
REMARK  109  A    between atoms: _262  and  _263
REMARK  110  A    between atoms: _265  and  _267
REMARK  111  A    between atoms: _267  and  _268
REMARK  112  A    between atoms: _267  and  _270
REMARK  113  A    between atoms: _270  and  _271
REMARK  114  A    between atoms: _274  and  _276
REMARK  115  A    between atoms: _276  and  _277
REMARK  116  A    between atoms: _279  and  _281
REMARK  117  A    between atoms: _281  and  _282
REMARK  118  A    between atoms: _281  and  _284
REMARK  119  A    between atoms: _284  and  _285
REMARK  120  A    between atoms: _289  and  ZN_394
REMARK  121  A    between atoms: _290  and  _292
REMARK  122  A    between atoms: _292  and  _293
REMARK  123  A    between atoms: _296  and  _298
REMARK  124  A    between atoms: _298  and  _299
REMARK  125  A    between atoms: _298  and  _301
REMARK  126  A    between atoms: _304  and  _306
REMARK  127  A    between atoms: _306  and  _307
REMARK  128  A    between atoms: _306  and  _309
REMARK  129  A    between atoms: _309  and  _310
REMARK  130  A    between atoms: _310  and  _311
REMARK  131  A    between atoms: _313  and  _315
REMARK  132  A    between atoms: _315  and  _316
REMARK  133  A    between atoms: _315  and  _318
REMARK  134  A    between atoms: _318  and  _319
REMARK  135  A    between atoms: _326  and  _327
REMARK  136  A    between atoms: _332  and  _334
REMARK  137  A    between atoms: _334  and  _335
REMARK  138  A    between atoms: _334  and  _337
REMARK  139  A    between atoms: _337  and  _338
REMARK  140  A    between atoms: _341  and  _343
REMARK  141  A    between atoms: _343  and  _344
REMARK  142  A    between atoms: _343  and  _346
REMARK  143  A    between atoms: _346  and  _347
REMARK  144  A    between atoms: _352  and  _353
REMARK  145  A    between atoms: _355  and  _357
REMARK  146  A    between atoms: _357  and  _358
REMARK  147  A    between atoms: _357  and  _360
REMARK  148  A    between atoms: _360  and  _361
REMARK  149  A    between atoms: _361  and  _362
REMARK  150  A    between atoms: _362  and  _363
REMARK  151  A    between atoms: _363  and  _364
REMARK  152  A    between atoms: _368  and  _370
REMARK  153  A    between atoms: _370  and  _371
REMARK  154  A    between atoms: _370  and  _373
REMARK  155  A    between atoms: _373  and  _374
REMARK  156  A    between atoms: _379  and  _380
REMARK  157  A    between atoms: _382  and  _384
REMARK  158  A    between atoms: _384  and  _385
REMARK  159  A    between atoms: _384  and  _387
REMARK  160  A    between atoms: _387  and  _388
REMARK                            x       y       z     vdW  Elec       q    Type
REMARK                         _______ _______ _______ _____ _____    ______ ____
ROOT
ATOM      1  O   HOH     1       8.923  26.405  12.477  0.00  0.00    +0.000 OA
ENDROOT
TORSDOF 0
REMARK  Name = ../refined-set-2016/1rmz/1rmz_pocket.pdb
REMARK  160 active torsions:
REMARK  status: ('A' for Active; 'I' for Inactive)
REMARK    1  A    between atoms: _1  and  _3
REMARK    2  A    between atoms: _3  and  _4
REMARK    3  A    between atoms: _3  and  _6
REMARK    4  A    between atoms: _6  and  _7
REMARK    5  A    between atoms: _13  and  _15
REMARK    6  A    between atoms: _15  and  _16
REMARK    7  A    between atoms: _15  and  _18
REMARK    8  A    between atoms: _18  and  _19
REMARK    9  A    between atoms: _22  and  _24
REMARK   10  A    between atoms: _24  and  _25
REMARK   11  A    between atoms: _27  and  _29
REMARK   12  A    between atoms: _29  and  _30
REMARK   13  A    between atoms: _32  and  _34
REMARK   14  A    between atoms: _34  and  _35
REMARK   15  A    between atoms: _34  and  _37
REMARK   16  A    between atoms: _35  and  _36
REMARK   17  A    between atoms: _35  and  _41
REMARK   18  A    between atoms: _36  and  CA_395
REMARK   19  A    between atoms: _37  and  _38
REMARK   20  A    between atoms: _41  and  _43
REMARK   21  A    between atoms: _43  and  _44
REMARK   22  A    between atoms: _43  and  _46
REMARK   23  A    between atoms: _46  and  _47
REMARK   24  A    between atoms: _50  and  _52
REMARK   25  A    between atoms: _52  and  _53
REMARK   26  A    between atoms: _56  and  _58
REMARK   27  A    between atoms: _58  and  _59
REMARK   28  A    between atoms: _58  and  _61
REMARK   29  A    between atoms: _61  and  _62
REMARK   30  A    between atoms: _67  and  _69
REMARK   31  A    between atoms: _69  and  _70
REMARK   32  A    between atoms: _73  and  _75
REMARK   33  A    between atoms: _75  and  _76
REMARK   34  A    between atoms: _75  and  _78
REMARK   35  A    between atoms: _78  and  _79
REMARK   36  A    between atoms: _85  and  _87
REMARK   37  A    between atoms: _87  and  _88
REMARK   38  A    between atoms: _87  and  _90
REMARK   39  A    between atoms: _90  and  _91
REMARK   40  A    between atoms: _96  and  _98
REMARK   41  A    between atoms: _98  and  _99
REMARK   42  A    between atoms: _98  and  _101
REMARK   43  A    between atoms: _101  and  _102
REMARK   44  A    between atoms: _108  and  _110
REMARK   45  A    between atoms: _110  and  _111
REMARK   46  A    between atoms: _110  and  _113
REMARK   47  A    between atoms: _113  and  _114
REMARK   48  A    between atoms: _117  and  _119
REMARK   49  A    between atoms: _119  and  _120
REMARK   50  A    between atoms: _119  and  _122
REMARK   51  A    between atoms: _122  and  _123
REMARK   52  A    between atoms: _123  and  _124
REMARK   53  A    between atoms: _124  and  _126
REMARK   54  A    between atoms: _126  and  CA_395
REMARK   55  A    between atoms: _127  and  _129
REMARK   56  A    between atoms: _129  and  _130
REMARK   57  A    between atoms: _129  and  _132
REMARK   58  A    between atoms: _132  and  _133
REMARK   59  A    between atoms: _143  and  _145
REMARK   60  A    between atoms: _145  and  _146
REMARK   61  A    between atoms: _145  and  _148
REMARK   62  A    between atoms: _148  and  _149
REMARK   63  A    between atoms: _152  and  _154
REMARK   64  A    between atoms: _154  and  _155
REMARK   65  A    between atoms: _154  and  _157
REMARK   66  A    between atoms: _157  and  _158
REMARK   67  A    between atoms: _163  and  _165
REMARK   68  A    between atoms: _165  and  _166
REMARK   69  A    between atoms: _165  and  _168
REMARK   70  A    between atoms: _168  and  _169
REMARK   71  A    between atoms: _172  and  _174
REMARK   72  A    between atoms: _174  and  _175
REMARK   73  A    between atoms: _174  and  _177
REMARK   74  A    between atoms: _177  and  _178
REMARK   75  A    between atoms: _184  and  _186
REMARK   76  A    between atoms: _186  and  _187
REMARK   77  A    between atoms: _186  and  _189
REMARK   78  A    between atoms: _189  and  _190
REMARK   79  A    between atoms: _193  and  _195
REMARK   80  A    between atoms: _195  and  _196
REMARK   81  A    between atoms: _195  and  _198
REMARK   82  A    between atoms: _198  and  _199
REMARK   83  A    between atoms: _202  and  _204
REMARK   84  A    between atoms: _204  and  _205
REMARK   85  A    between atoms: _208  and  _210
REMARK   86  A    between atoms: _210  and  _211
REMARK   87  A    between atoms: _210  and  _213
REMARK   88  A    between atoms: _216  and  _218
REMARK   89  A    between atoms: _218  and  _219
REMARK   90  A    between atoms: _218  and  _221
REMARK   91  A    between atoms: _221  and  _222
REMARK   92  A    between atoms: _226  and  ZN_394
REMARK   93  A    between atoms: _229  and  _230
REMARK   94  A    between atoms: _229  and  _232
REMARK   95  A    between atoms: _232  and  _233
REMARK   96  A    between atoms: _233  and  _234
REMARK   97  A    between atoms: _237  and  _239
REMARK   98  A    between atoms: _239  and  _240
REMARK   99  A    between atoms: _239  and  _242
REMARK  100  A    between atoms: _242  and  _243
REMARK  101  A    between atoms: _246  and  _248
REMARK  102  A    between atoms: _248  and  _249
REMARK  103  A    between atoms: _248  and  _251
REMARK  104  A    between atoms: _251  and  _252
REMARK  105  A    between atoms: _256  and  ZN_394
REMARK  106  A    between atoms: _257  and  _259
REMARK  107  A    between atoms: _259  and  _260
REMARK  108  A    between atoms: _259  and  _262
REMARK  109  A    between atoms: _262  and  _263
REMARK  110  A    between atoms: _265  and  _267
REMARK  111  A    between atoms: _267  and  _268
REMARK  112  A    between atoms: _267  and  _270
REMARK  113  A    between atoms: _270  and  _271
REMARK  114  A    between atoms: _274  and  _276
REMARK  115  A    between atoms: _276  and  _277
REMARK  116  A    between atoms: _279  and  _281
REMARK  117  A    between atoms: _281  and  _282
REMARK  118  A    between atoms: _281  and  _284
REMARK  119  A    between atoms: _284  and  _285
REMARK  120  A    between atoms: _289  and  ZN_394
REMARK  121  A    between atoms: _290  and  _292
REMARK  122  A    between atoms: _292  and  _293
REMARK  123  A    between atoms: _296  and  _298
REMARK  124  A    between atoms: _298  and  _299
REMARK  125  A    between atoms: _298  and  _301
REMARK  126  A    between atoms: _304  and  _306
REMARK  127  A    between atoms: _306  and  _307
REMARK  128  A    between atoms: _306  and  _309
REMARK  129  A    between atoms: _309  and  _310
REMARK  130  A    between atoms: _310  and  _311
REMARK  131  A    between atoms: _313  and  _315
REMARK  132  A    between atoms: _315  and  _316
REMARK  133  A    between atoms: _315  and  _318
REMARK  134  A    between atoms: _318  and  _319
REMARK  135  A    between atoms: _326  and  _327
REMARK  136  A    between atoms: _332  and  _334
REMARK  137  A    between atoms: _334  and  _335
REMARK  138  A    between atoms: _334  and  _337
REMARK  139  A    between atoms: _337  and  _338
REMARK  140  A    between atoms: _341  and  _343
REMARK  141  A    between atoms: _343  and  _344
REMARK  142  A    between atoms: _343  and  _346
REMARK  143  A    between atoms: _346  and  _347
REMARK  144  A    between atoms: _352  and  _353
REMARK  145  A    between atoms: _355  and  _357
REMARK  146  A    between atoms: _357  and  _358
REMARK  147  A    between atoms: _357  and  _360
REMARK  148  A    between atoms: _360  and  _361
REMARK  149  A    between atoms: _361  and  _362
REMARK  150  A    between atoms: _362  and  _363
REMARK  151  A    between atoms: _363  and  _364
REMARK  152  A    between atoms: _368  and  _370
REMARK  153  A    between atoms: _370  and  _371
REMARK  154  A    between atoms: _370  and  _373
REMARK  155  A    between atoms: _373  and  _374
REMARK  156  A    between atoms: _379  and  _380
REMARK  157  A    between atoms: _382  and  _384
REMARK  158  A    between atoms: _384  and  _385
REMARK  159  A    between atoms: _384  and  _387
REMARK  160  A    between atoms: _387  and  _388
REMARK                            x       y       z     vdW  Elec       q    Type
REMARK                         _______ _______ _______ _____ _____    ______ ____
ROOT
ATOM      1  O   HOH     1      -3.094  24.231   6.355  0.00  0.00    +0.000 OA
ENDROOT
TORSDOF 0
REMARK  Name = ../refined-set-2016/1rmz/1rmz_pocket.pdb
REMARK  160 active torsions:
REMARK  status: ('A' for Active; 'I' for Inactive)
REMARK    1  A    between atoms: _1  and  _3
REMARK    2  A    between atoms: _3  and  _4
REMARK    3  A    between atoms: _3  and  _6
REMARK    4  A    between atoms: _6  and  _7
REMARK    5  A    between atoms: _13  and  _15
REMARK    6  A    between atoms: _15  and  _16
REMARK    7  A    between atoms: _15  and  _18
REMARK    8  A    between atoms: _18  and  _19
REMARK    9  A    between atoms: _22  and  _24
REMARK   10  A    between atoms: _24  and  _25
REMARK   11  A    between atoms: _27  and  _29
REMARK   12  A    between atoms: _29  and  _30
REMARK   13  A    between atoms: _32  and  _34
REMARK   14  A    between atoms: _34  and  _35
REMARK   15  A    between atoms: _34  and  _37
REMARK   16  A    between atoms: _35  and  _36
REMARK   17  A    between atoms: _35  and  _41
REMARK   18  A    between atoms: _36  and  CA_395
REMARK   19  A    between atoms: _37  and  _38
REMARK   20  A    between atoms: _41  and  _43
REMARK   21  A    between atoms: _43  and  _44
REMARK   22  A    between atoms: _43  and  _46
REMARK   23  A    between atoms: _46  and  _47
REMARK   24  A    between atoms: _50  and  _52
REMARK   25  A    between atoms: _52  and  _53
REMARK   26  A    between atoms: _56  and  _58
REMARK   27  A    between atoms: _58  and  _59
REMARK   28  A    between atoms: _58  and  _61
REMARK   29  A    between atoms: _61  and  _62
REMARK   30  A    between atoms: _67  and  _69
REMARK   31  A    between atoms: _69  and  _70
REMARK   32  A    between atoms: _73  and  _75
REMARK   33  A    between atoms: _75  and  _76
REMARK   34  A    between atoms: _75  and  _78
REMARK   35  A    between atoms: _78  and  _79
REMARK   36  A    between atoms: _85  and  _87
REMARK   37  A    between atoms: _87  and  _88
REMARK   38  A    between atoms: _87  and  _90
REMARK   39  A    between atoms: _90  and  _91
REMARK   40  A    between atoms: _96  and  _98
REMARK   41  A    between atoms: _98  and  _99
REMARK   42  A    between atoms: _98  and  _101
REMARK   43  A    between atoms: _101  and  _102
REMARK   44  A    between atoms: _108  and  _110
REMARK   45  A    between atoms: _110  and  _111
REMARK   46  A    between atoms: _110  and  _113
REMARK   47  A    between atoms: _113  and  _114
REMARK   48  A    between atoms: _117  and  _119
REMARK   49  A    between atoms: _119  and  _120
REMARK   50  A    between atoms: _119  and  _122
REMARK   51  A    between atoms: _122  and  _123
REMARK   52  A    between atoms: _123  and  _124
REMARK   53  A    between atoms: _124  and  _126
REMARK   54  A    between atoms: _126  and  CA_395
REMARK   55  A    between atoms: _127  and  _129
REMARK   56  A    between atoms: _129  and  _130
REMARK   57  A    between atoms: _129  and  _132
REMARK   58  A    between atoms: _132  and  _133
REMARK   59  A    between atoms: _143  and  _145
REMARK   60  A    between atoms: _145  and  _146
REMARK   61  A    between atoms: _145  and  _148
REMARK   62  A    between atoms: _148  and  _149
REMARK   63  A    between atoms: _152  and  _154
REMARK   64  A    between atoms: _154  and  _155
REMARK   65  A    between atoms: _154  and  _157
REMARK   66  A    between atoms: _157  and  _158
REMARK   67  A    between atoms: _163  and  _165
REMARK   68  A    between atoms: _165  and  _166
REMARK   69  A    between atoms: _165  and  _168
REMARK   70  A    between atoms: _168  and  _169
REMARK   71  A    between atoms: _172  and  _174
REMARK   72  A    between atoms: _174  and  _175
REMARK   73  A    between atoms: _174  and  _177
REMARK   74  A    between atoms: _177  and  _178
REMARK   75  A    between atoms: _184  and  _186
REMARK   76  A    between atoms: _186  and  _187
REMARK   77  A    between atoms: _186  and  _189
REMARK   78  A    between atoms: _189  and  _190
REMARK   79  A    between atoms: _193  and  _195
REMARK   80  A    between atoms: _195  and  _196
REMARK   81  A    between atoms: _195  and  _198
REMARK   82  A    between atoms: _198  and  _199
REMARK   83  A    between atoms: _202  and  _204
REMARK   84  A    between atoms: _204  and  _205
REMARK   85  A    between atoms: _208  and  _210
REMARK   86  A    between atoms: _210  and  _211
REMARK   87  A    between atoms: _210  and  _213
REMARK   88  A    between atoms: _216  and  _218
REMARK   89  A    between atoms: _218  and  _219
REMARK   90  A    between atoms: _218  and  _221
REMARK   91  A    between atoms: _221  and  _222
REMARK   92  A    between atoms: _226  and  ZN_394
REMARK   93  A    between atoms: _229  and  _230
REMARK   94  A    between atoms: _229  and  _232
REMARK   95  A    between atoms: _232  and  _233
REMARK   96  A    between atoms: _233  and  _234
REMARK   97  A    between atoms: _237  and  _239
REMARK   98  A    between atoms: _239  and  _240
REMARK   99  A    between atoms: _239  and  _242
REMARK  100  A    between atoms: _242  and  _243
REMARK  101  A    between atoms: _246  and  _248
REMARK  102  A    between atoms: _248  and  _249
REMARK  103  A    between atoms: _248  and  _251
REMARK  104  A    between atoms: _251  and  _252
REMARK  105  A    between atoms: _256  and  ZN_394
REMARK  106  A    between atoms: _257  and  _259
REMARK  107  A    between atoms: _259  and  _260
REMARK  108  A    between atoms: _259  and  _262
REMARK  109  A    between atoms: _262  and  _263
REMARK  110  A    between atoms: _265  and  _267
REMARK  111  A    between atoms: _267  and  _268
REMARK  112  A    between atoms: _267  and  _270
REMARK  113  A    between atoms: _270  and  _271
REMARK  114  A    between atoms: _274  and  _276
REMARK  115  A    between atoms: _276  and  _277
REMARK  116  A    between atoms: _279  and  _281
REMARK  117  A    between atoms: _281  and  _282
REMARK  118  A    between atoms: _281  and  _284
REMARK  119  A    between atoms: _284  and  _285
REMARK  120  A    between atoms: _289  and  ZN_394
REMARK  121  A    between atoms: _290  and  _292
REMARK  122  A    between atoms: _292  and  _293
REMARK  123  A    between atoms: _296  and  _298
REMARK  124  A    between atoms: _298  and  _299
REMARK  125  A    between atoms: _298  and  _301
REMARK  126  A    between atoms: _304  and  _306
REMARK  127  A    between atoms: _306  and  _307
REMARK  128  A    between atoms: _306  and  _309
REMARK  129  A    between atoms: _309  and  _310
REMARK  130  A    between atoms: _310  and  _311
REMARK  131  A    between atoms: _313  and  _315
REMARK  132  A    between atoms: _315  and  _316
REMARK  133  A    between atoms: _315  and  _318
REMARK  134  A    between atoms: _318  and  _319
REMARK  135  A    between atoms: _326  and  _327
REMARK  136  A    between atoms: _332  and  _334
REMARK  137  A    between atoms: _334  and  _335
REMARK  138  A    between atoms: _334  and  _337
REMARK  139  A    between atoms: _337  and  _338
REMARK  140  A    between atoms: _341  and  _343
REMARK  141  A    between atoms: _343  and  _344
REMARK  142  A    between atoms: _343  and  _346
REMARK  143  A    between atoms: _346  and  _347
REMARK  144  A    between atoms: _352  and  _353
REMARK  145  A    between atoms: _355  and  _357
REMARK  146  A    between atoms: _357  and  _358
REMARK  147  A    between atoms: _357  and  _360
REMARK  148  A    between atoms: _360  and  _361
REMARK  149  A    between atoms: _361  and  _362
REMARK  150  A    between atoms: _362  and  _363
REMARK  151  A    between atoms: _363  and  _364
REMARK  152  A    between atoms: _368  and  _370
REMARK  153  A    between atoms: _370  and  _371
REMARK  154  A    between atoms: _370  and  _373
REMARK  155  A    between atoms: _373  and  _374
REMARK  156  A    between atoms: _379  and  _380
REMARK  157  A    between atoms: _382  and  _384
REMARK  158  A    between atoms: _384  and  _385
REMARK  159  A    between atoms: _384  and  _387
REMARK  160  A    between atoms: _387  and  _388
REMARK                            x       y       z     vdW  Elec       q    Type
REMARK                         _______ _______ _______ _____ _____    ______ ____
ROOT
ATOM      1  O   HOH     1       8.586  20.924  -6.097  0.00  0.00    +0.000 OA
ENDROOT
TORSDOF 0
REMARK  Name = ../refined-set-2016/1rmz/1rmz_pocket.pdb
REMARK  160 active torsions:
REMARK  status: ('A' for Active; 'I' for Inactive)
REMARK    1  A    between atoms: _1  and  _3
REMARK    2  A    between atoms: _3  and  _4
REMARK    3  A    between atoms: _3  and  _6
REMARK    4  A    between atoms: _6  and  _7
REMARK    5  A    between atoms: _13  and  _15
REMARK    6  A    between atoms: _15  and  _16
REMARK    7  A    between atoms: _15  and  _18
REMARK    8  A    between atoms: _18  and  _19
REMARK    9  A    between atoms: _22  and  _24
REMARK   10  A    between atoms: _24  and  _25
REMARK   11  A    between atoms: _27  and  _29
REMARK   12  A    between atoms: _29  and  _30
REMARK   13  A    between atoms: _32  and  _34
REMARK   14  A    between atoms: _34  and  _35
REMARK   15  A    between atoms: _34  and  _37
REMARK   16  A    between atoms: _35  and  _36
REMARK   17  A    between atoms: _35  and  _41
REMARK   18  A    between atoms: _36  and  CA_395
REMARK   19  A    between atoms: _37  and  _38
REMARK   20  A    between atoms: _41  and  _43
REMARK   21  A    between atoms: _43  and  _44
REMARK   22  A    between atoms: _43  and  _46
REMARK   23  A    between atoms: _46  and  _47
REMARK   24  A    between atoms: _50  and  _52
REMARK   25  A    between atoms: _52  and  _53
REMARK   26  A    between atoms: _56  and  _58
REMARK   27  A    between atoms: _58  and  _59
REMARK   28  A    between atoms: _58  and  _61
REMARK   29  A    between atoms: _61  and  _62
REMARK   30  A    between atoms: _67  and  _69
REMARK   31  A    between atoms: _69  and  _70
REMARK   32  A    between atoms: _73  and  _75
REMARK   33  A    between atoms: _75  and  _76
REMARK   34  A    between atoms: _75  and  _78
REMARK   35  A    between atoms: _78  and  _79
REMARK   36  A    between atoms: _85  and  _87
REMARK   37  A    between atoms: _87  and  _88
REMARK   38  A    between atoms: _87  and  _90
REMARK   39  A    between atoms: _90  and  _91
REMARK   40  A    between atoms: _96  and  _98
REMARK   41  A    between atoms: _98  and  _99
REMARK   42  A    between atoms: _98  and  _101
REMARK   43  A    between atoms: _101  and  _102
REMARK   44  A    between atoms: _108  and  _110
REMARK   45  A    between atoms: _110  and  _111
REMARK   46  A    between atoms: _110  and  _113
REMARK   47  A    between atoms: _113  and  _114
REMARK   48  A    between atoms: _117  and  _119
REMARK   49  A    between atoms: _119  and  _120
REMARK   50  A    between atoms: _119  and  _122
REMARK   51  A    between atoms: _122  and  _123
REMARK   52  A    between atoms: _123  and  _124
REMARK   53  A    between atoms: _124  and  _126
REMARK   54  A    between atoms: _126  and  CA_395
REMARK   55  A    between atoms: _127  and  _129
REMARK   56  A    between atoms: _129  and  _130
REMARK   57  A    between atoms: _129  and  _132
REMARK   58  A    between atoms: _132  and  _133
REMARK   59  A    between atoms: _143  and  _145
REMARK   60  A    between atoms: _145  and  _146
REMARK   61  A    between atoms: _145  and  _148
REMARK   62  A    between atoms: _148  and  _149
REMARK   63  A    between atoms: _152  and  _154
REMARK   64  A    between atoms: _154  and  _155
REMARK   65  A    between atoms: _154  and  _157
REMARK   66  A    between atoms: _157  and  _158
REMARK   67  A    between atoms: _163  and  _165
REMARK   68  A    between atoms: _165  and  _166
REMARK   69  A    between atoms: _165  and  _168
REMARK   70  A    between atoms: _168  and  _169
REMARK   71  A    between atoms: _172  and  _174
REMARK   72  A    between atoms: _174  and  _175
REMARK   73  A    between atoms: _174  and  _177
REMARK   74  A    between atoms: _177  and  _178
REMARK   75  A    between atoms: _184  and  _186
REMARK   76  A    between atoms: _186  and  _187
REMARK   77  A    between atoms: _186  and  _189
REMARK   78  A    between atoms: _189  and  _190
REMARK   79  A    between atoms: _193  and  _195
REMARK   80  A    between atoms: _195  and  _196
REMARK   81  A    between atoms: _195  and  _198
REMARK   82  A    between atoms: _198  and  _199
REMARK   83  A    between atoms: _202  and  _204
REMARK   84  A    between atoms: _204  and  _205
REMARK   85  A    between atoms: _208  and  _210
REMARK   86  A    between atoms: _210  and  _211
REMARK   87  A    between atoms: _210  and  _213
REMARK   88  A    between atoms: _216  and  _218
REMARK   89  A    between atoms: _218  and  _219
REMARK   90  A    between atoms: _218  and  _221
REMARK   91  A    between atoms: _221  and  _222
REMARK   92  A    between atoms: _226  and  ZN_394
REMARK   93  A    between atoms: _229  and  _230
REMARK   94  A    between atoms: _229  and  _232
REMARK   95  A    between atoms: _232  and  _233
REMARK   96  A    between atoms: _233  and  _234
REMARK   97  A    between atoms: _237  and  _239
REMARK   98  A    between atoms: _239  and  _240
REMARK   99  A    between atoms: _239  and  _242
REMARK  100  A    between atoms: _242  and  _243
REMARK  101  A    between atoms: _246  and  _248
REMARK  102  A    between atoms: _248  and  _249
REMARK  103  A    between atoms: _248  and  _251
REMARK  104  A    between atoms: _251  and  _252
REMARK  105  A    between atoms: _256  and  ZN_394
REMARK  106  A    between atoms: _257  and  _259
REMARK  107  A    between atoms: _259  and  _260
REMARK  108  A    between atoms: _259  and  _262
REMARK  109  A    between atoms: _262  and  _263
REMARK  110  A    between atoms: _265  and  _267
REMARK  111  A    between atoms: _267  and  _268
REMARK  112  A    between atoms: _267  and  _270
REMARK  113  A    between atoms: _270  and  _271
REMARK  114  A    between atoms: _274  and  _276
REMARK  115  A    between atoms: _276  and  _277
REMARK  116  A    between atoms: _279  and  _281
REMARK  117  A    between atoms: _281  and  _282
REMARK  118  A    between atoms: _281  and  _284
REMARK  119  A    between atoms: _284  and  _285
REMARK  120  A    between atoms: _289  and  ZN_394
REMARK  121  A    between atoms: _290  and  _292
REMARK  122  A    between atoms: _292  and  _293
REMARK  123  A    between atoms: _296  and  _298
REMARK  124  A    between atoms: _298  and  _299
REMARK  125  A    between atoms: _298  and  _301
REMARK  126  A    between atoms: _304  and  _306
REMARK  127  A    between atoms: _306  and  _307
REMARK  128  A    between atoms: _306  and  _309
REMARK  129  A    between atoms: _309  and  _310
REMARK  130  A    between atoms: _310  and  _311
REMARK  131  A    between atoms: _313  and  _315
REMARK  132  A    between atoms: _315  and  _316
REMARK  133  A    between atoms: _315  and  _318
REMARK  134  A    between atoms: _318  and  _319
REMARK  135  A    between atoms: _326  and  _327
REMARK  136  A    between atoms: _332  and  _334
REMARK  137  A    between atoms: _334  and  _335
REMARK  138  A    between atoms: _334  and  _337
REMARK  139  A    between atoms: _337  and  _338
REMARK  140  A    between atoms: _341  and  _343
REMARK  141  A    between atoms: _343  and  _344
REMARK  142  A    between atoms: _343  and  _346
REMARK  143  A    between atoms: _346  and  _347
REMARK  144  A    between atoms: _352  and  _353
REMARK  145  A    between atoms: _355  and  _357
REMARK  146  A    between atoms: _357  and  _358
REMARK  147  A    between atoms: _357  and  _360
REMARK  148  A    between atoms: _360  and  _361
REMARK  149  A    between atoms: _361  and  _362
REMARK  150  A    between atoms: _362  and  _363
REMARK  151  A    between atoms: _363  and  _364
REMARK  152  A    between atoms: _368  and  _370
REMARK  153  A    between atoms: _370  and  _371
REMARK  154  A    between atoms: _370  and  _373
REMARK  155  A    between atoms: _373  and  _374
REMARK  156  A    between atoms: _379  and  _380
REMARK  157  A    between atoms: _382  and  _384
REMARK  158  A    between atoms: _384  and  _385
REMARK  159  A    between atoms: _384  and  _387
REMARK  160  A    between atoms: _387  and  _388
REMARK                            x       y       z     vdW  Elec       q    Type
REMARK                         _______ _______ _______ _____ _____    ______ ____
ROOT
ATOM      1  O   HOH     1      -1.327  29.734  -1.315  0.00  0.00    +0.000 OA
ENDROOT
TORSDOF 0
REMARK  Name = ../refined-set-2016/1rmz/1rmz_pocket.pdb
REMARK  160 active torsions:
REMARK  status: ('A' for Active; 'I' for Inactive)
REMARK    1  A    between atoms: _1  and  _3
REMARK    2  A    between atoms: _3  and  _4
REMARK    3  A    between atoms: _3  and  _6
REMARK    4  A    between atoms: _6  and  _7
REMARK    5  A    between atoms: _13  and  _15
REMARK    6  A    between atoms: _15  and  _16
REMARK    7  A    between atoms: _15  and  _18
REMARK    8  A    between atoms: _18  and  _19
REMARK    9  A    between atoms: _22  and  _24
REMARK   10  A    between atoms: _24  and  _25
REMARK   11  A    between atoms: _27  and  _29
REMARK   12  A    between atoms: _29  and  _30
REMARK   13  A    between atoms: _32  and  _34
REMARK   14  A    between atoms: _34  and  _35
REMARK   15  A    between atoms: _34  and  _37
REMARK   16  A    between atoms: _35  and  _36
REMARK   17  A    between atoms: _35  and  _41
REMARK   18  A    between atoms: _36  and  CA_395
REMARK   19  A    between atoms: _37  and  _38
REMARK   20  A    between atoms: _41  and  _43
REMARK   21  A    between atoms: _43  and  _44
REMARK   22  A    between atoms: _43  and  _46
REMARK   23  A    between atoms: _46  and  _47
REMARK   24  A    between atoms: _50  and  _52
REMARK   25  A    between atoms: _52  and  _53
REMARK   26  A    between atoms: _56  and  _58
REMARK   27  A    between atoms: _58  and  _59
REMARK   28  A    between atoms: _58  and  _61
REMARK   29  A    between atoms: _61  and  _62
REMARK   30  A    between atoms: _67  and  _69
REMARK   31  A    between atoms: _69  and  _70
REMARK   32  A    between atoms: _73  and  _75
REMARK   33  A    between atoms: _75  and  _76
REMARK   34  A    between atoms: _75  and  _78
REMARK   35  A    between atoms: _78  and  _79
REMARK   36  A    between atoms: _85  and  _87
REMARK   37  A    between atoms: _87  and  _88
REMARK   38  A    between atoms: _87  and  _90
REMARK   39  A    between atoms: _90  and  _91
REMARK   40  A    between atoms: _96  and  _98
REMARK   41  A    between atoms: _98  and  _99
REMARK   42  A    between atoms: _98  and  _101
REMARK   43  A    between atoms: _101  and  _102
REMARK   44  A    between atoms: _108  and  _110
REMARK   45  A    between atoms: _110  and  _111
REMARK   46  A    between atoms: _110  and  _113
REMARK   47  A    between atoms: _113  and  _114
REMARK   48  A    between atoms: _117  and  _119
REMARK   49  A    between atoms: _119  and  _120
REMARK   50  A    between atoms: _119  and  _122
REMARK   51  A    between atoms: _122  and  _123
REMARK   52  A    between atoms: _123  and  _124
REMARK   53  A    between atoms: _124  and  _126
REMARK   54  A    between atoms: _126  and  CA_395
REMARK   55  A    between atoms: _127  and  _129
REMARK   56  A    between atoms: _129  and  _130
REMARK   57  A    between atoms: _129  and  _132
REMARK   58  A    between atoms: _132  and  _133
REMARK   59  A    between atoms: _143  and  _145
REMARK   60  A    between atoms: _145  and  _146
REMARK   61  A    between atoms: _145  and  _148
REMARK   62  A    between atoms: _148  and  _149
REMARK   63  A    between atoms: _152  and  _154
REMARK   64  A    between atoms: _154  and  _155
REMARK   65  A    between atoms: _154  and  _157
REMARK   66  A    between atoms: _157  and  _158
REMARK   67  A    between atoms: _163  and  _165
REMARK   68  A    between atoms: _165  and  _166
REMARK   69  A    between atoms: _165  and  _168
REMARK   70  A    between atoms: _168  and  _169
REMARK   71  A    between atoms: _172  and  _174
REMARK   72  A    between atoms: _174  and  _175
REMARK   73  A    between atoms: _174  and  _177
REMARK   74  A    between atoms: _177  and  _178
REMARK   75  A    between atoms: _184  and  _186
REMARK   76  A    between atoms: _186  and  _187
REMARK   77  A    between atoms: _186  and  _189
REMARK   78  A    between atoms: _189  and  _190
REMARK   79  A    between atoms: _193  and  _195
REMARK   80  A    between atoms: _195  and  _196
REMARK   81  A    between atoms: _195  and  _198
REMARK   82  A    between atoms: _198  and  _199
REMARK   83  A    between atoms: _202  and  _204
REMARK   84  A    between atoms: _204  and  _205
REMARK   85  A    between atoms: _208  and  _210
REMARK   86  A    between atoms: _210  and  _211
REMARK   87  A    between atoms: _210  and  _213
REMARK   88  A    between atoms: _216  and  _218
REMARK   89  A    between atoms: _218  and  _219
REMARK   90  A    between atoms: _218  and  _221
REMARK   91  A    between atoms: _221  and  _222
REMARK   92  A    between atoms: _226  and  ZN_394
REMARK   93  A    between atoms: _229  and  _230
REMARK   94  A    between atoms: _229  and  _232
REMARK   95  A    between atoms: _232  and  _233
REMARK   96  A    between atoms: _233  and  _234
REMARK   97  A    between atoms: _237  and  _239
REMARK   98  A    between atoms: _239  and  _240
REMARK   99  A    between atoms: _239  and  _242
REMARK  100  A    between atoms: _242  and  _243
REMARK  101  A    between atoms: _246  and  _248
REMARK  102  A    between atoms: _248  and  _249
REMARK  103  A    between atoms: _248  and  _251
REMARK  104  A    between atoms: _251  and  _252
REMARK  105  A    between atoms: _256  and  ZN_394
REMARK  106  A    between atoms: _257  and  _259
REMARK  107  A    between atoms: _259  and  _260
REMARK  108  A    between atoms: _259  and  _262
REMARK  109  A    between atoms: _262  and  _263
REMARK  110  A    between atoms: _265  and  _267
REMARK  111  A    between atoms: _267  and  _268
REMARK  112  A    between atoms: _267  and  _270
REMARK  113  A    between atoms: _270  and  _271
REMARK  114  A    between atoms: _274  and  _276
REMARK  115  A    between atoms: _276  and  _277
REMARK  116  A    between atoms: _279  and  _281
REMARK  117  A    between atoms: _281  and  _282
REMARK  118  A    between atoms: _281  and  _284
REMARK  119  A    between atoms: _284  and  _285
REMARK  120  A    between atoms: _289  and  ZN_394
REMARK  121  A    between atoms: _290  and  _292
REMARK  122  A    between atoms: _292  and  _293
REMARK  123  A    between atoms: _296  and  _298
REMARK  124  A    between atoms: _298  and  _299
REMARK  125  A    between atoms: _298  and  _301
REMARK  126  A    between atoms: _304  and  _306
REMARK  127  A    between atoms: _306  and  _307
REMARK  128  A    between atoms: _306  and  _309
REMARK  129  A    between atoms: _309  and  _310
REMARK  130  A    between atoms: _310  and  _311
REMARK  131  A    between atoms: _313  and  _315
REMARK  132  A    between atoms: _315  and  _316
REMARK  133  A    between atoms: _315  and  _318
REMARK  134  A    between atoms: _318  and  _319
REMARK  135  A    between atoms: _326  and  _327
REMARK  136  A    between atoms: _332  and  _334
REMARK  137  A    between atoms: _334  and  _335
REMARK  138  A    between atoms: _334  and  _337
REMARK  139  A    between atoms: _337  and  _338
REMARK  140  A    between atoms: _341  and  _343
REMARK  141  A    between atoms: _343  and  _344
REMARK  142  A    between atoms: _343  and  _346
REMARK  143  A    between atoms: _346  and  _347
REMARK  144  A    between atoms: _352  and  _353
REMARK  145  A    between atoms: _355  and  _357
REMARK  146  A    between atoms: _357  and  _358
REMARK  147  A    between atoms: _357  and  _360
REMARK  148  A    between atoms: _360  and  _361
REMARK  149  A    between atoms: _361  and  _362
REMARK  150  A    between atoms: _362  and  _363
REMARK  151  A    between atoms: _363  and  _364
REMARK  152  A    between atoms: _368  and  _370
REMARK  153  A    between atoms: _370  and  _371
REMARK  154  A    between atoms: _370  and  _373
REMARK  155  A    between atoms: _373  and  _374
REMARK  156  A    between atoms: _379  and  _380
REMARK  157  A    between atoms: _382  and  _384
REMARK  158  A    between atoms: _384  and  _385
REMARK  159  A    between atoms: _384  and  _387
REMARK  160  A    between atoms: _387  and  _388
REMARK                            x       y       z     vdW  Elec       q    Type
REMARK                         _______ _______ _______ _____ _____    ______ ____
ROOT
ATOM      1  O   HOH     1       5.358  30.362   5.199  0.00  0.00    +0.000 OA
ENDROOT
TORSDOF 0
REMARK  Name = ../refined-set-2016/1rmz/1rmz_pocket.pdb
REMARK  160 active torsions:
REMARK  status: ('A' for Active; 'I' for Inactive)
REMARK    1  A    between atoms: _1  and  _3
REMARK    2  A    between atoms: _3  and  _4
REMARK    3  A    between atoms: _3  and  _6
REMARK    4  A    between atoms: _6  and  _7
REMARK    5  A    between atoms: _13  and  _15
REMARK    6  A    between atoms: _15  and  _16
REMARK    7  A    between atoms: _15  and  _18
REMARK    8  A    between atoms: _18  and  _19
REMARK    9  A    between atoms: _22  and  _24
REMARK   10  A    between atoms: _24  and  _25
REMARK   11  A    between atoms: _27  and  _29
REMARK   12  A    between atoms: _29  and  _30
REMARK   13  A    between atoms: _32  and  _34
REMARK   14  A    between atoms: _34  and  _35
REMARK   15  A    between atoms: _34  and  _37
REMARK   16  A    between atoms: _35  and  _36
REMARK   17  A    between atoms: _35  and  _41
REMARK   18  A    between atoms: _36  and  CA_395
REMARK   19  A    between atoms: _37  and  _38
REMARK   20  A    between atoms: _41  and  _43
REMARK   21  A    between atoms: _43  and  _44
REMARK   22  A    between atoms: _43  and  _46
REMARK   23  A    between atoms: _46  and  _47
REMARK   24  A    between atoms: _50  and  _52
REMARK   25  A    between atoms: _52  and  _53
REMARK   26  A    between atoms: _56  and  _58
REMARK   27  A    between atoms: _58  and  _59
REMARK   28  A    between atoms: _58  and  _61
REMARK   29  A    between atoms: _61  and  _62
REMARK   30  A    between atoms: _67  and  _69
REMARK   31  A    between atoms: _69  and  _70
REMARK   32  A    between atoms: _73  and  _75
REMARK   33  A    between atoms: _75  and  _76
REMARK   34  A    between atoms: _75  and  _78
REMARK   35  A    between atoms: _78  and  _79
REMARK   36  A    between atoms: _85  and  _87
REMARK   37  A    between atoms: _87  and  _88
REMARK   38  A    between atoms: _87  and  _90
REMARK   39  A    between atoms: _90  and  _91
REMARK   40  A    between atoms: _96  and  _98
REMARK   41  A    between atoms: _98  and  _99
REMARK   42  A    between atoms: _98  and  _101
REMARK   43  A    between atoms: _101  and  _102
REMARK   44  A    between atoms: _108  and  _110
REMARK   45  A    between atoms: _110  and  _111
REMARK   46  A    between atoms: _110  and  _113
REMARK   47  A    between atoms: _113  and  _114
REMARK   48  A    between atoms: _117  and  _119
REMARK   49  A    between atoms: _119  and  _120
REMARK   50  A    between atoms: _119  and  _122
REMARK   51  A    between atoms: _122  and  _123
REMARK   52  A    between atoms: _123  and  _124
REMARK   53  A    between atoms: _124  and  _126
REMARK   54  A    between atoms: _126  and  CA_395
REMARK   55  A    between atoms: _127  and  _129
REMARK   56  A    between atoms: _129  and  _130
REMARK   57  A    between atoms: _129  and  _132
REMARK   58  A    between atoms: _132  and  _133
REMARK   59  A    between atoms: _143  and  _145
REMARK   60  A    between atoms: _145  and  _146
REMARK   61  A    between atoms: _145  and  _148
REMARK   62  A    between atoms: _148  and  _149
REMARK   63  A    between atoms: _152  and  _154
REMARK   64  A    between atoms: _154  and  _155
REMARK   65  A    between atoms: _154  and  _157
REMARK   66  A    between atoms: _157  and  _158
REMARK   67  A    between atoms: _163  and  _165
REMARK   68  A    between atoms: _165  and  _166
REMARK   69  A    between atoms: _165  and  _168
REMARK   70  A    between atoms: _168  and  _169
REMARK   71  A    between atoms: _172  and  _174
REMARK   72  A    between atoms: _174  and  _175
REMARK   73  A    between atoms: _174  and  _177
REMARK   74  A    between atoms: _177  and  _178
REMARK   75  A    between atoms: _184  and  _186
REMARK   76  A    between atoms: _186  and  _187
REMARK   77  A    between atoms: _186  and  _189
REMARK   78  A    between atoms: _189  and  _190
REMARK   79  A    between atoms: _193  and  _195
REMARK   80  A    between atoms: _195  and  _196
REMARK   81  A    between atoms: _195  and  _198
REMARK   82  A    between atoms: _198  and  _199
REMARK   83  A    between atoms: _202  and  _204
REMARK   84  A    between atoms: _204  and  _205
REMARK   85  A    between atoms: _208  and  _210
REMARK   86  A    between atoms: _210  and  _211
REMARK   87  A    between atoms: _210  and  _213
REMARK   88  A    between atoms: _216  and  _218
REMARK   89  A    between atoms: _218  and  _219
REMARK   90  A    between atoms: _218  and  _221
REMARK   91  A    between atoms: _221  and  _222
REMARK   92  A    between atoms: _226  and  ZN_394
REMARK   93  A    between atoms: _229  and  _230
REMARK   94  A    between atoms: _229  and  _232
REMARK   95  A    between atoms: _232  and  _233
REMARK   96  A    between atoms: _233  and  _234
REMARK   97  A    between atoms: _237  and  _239
REMARK   98  A    between atoms: _239  and  _240
REMARK   99  A    between atoms: _239  and  _242
REMARK  100  A    between atoms: _242  and  _243
REMARK  101  A    between atoms: _246  and  _248
REMARK  102  A    between atoms: _248  and  _249
REMARK  103  A    between atoms: _248  and  _251
REMARK  104  A    between atoms: _251  and  _252
REMARK  105  A    between atoms: _256  and  ZN_394
REMARK  106  A    between atoms: _257  and  _259
REMARK  107  A    between atoms: _259  and  _260
REMARK  108  A    between atoms: _259  and  _262
REMARK  109  A    between atoms: _262  and  _263
REMARK  110  A    between atoms: _265  and  _267
REMARK  111  A    between atoms: _267  and  _268
REMARK  112  A    between atoms: _267  and  _270
REMARK  113  A    between atoms: _270  and  _271
REMARK  114  A    between atoms: _274  and  _276
REMARK  115  A    between atoms: _276  and  _277
REMARK  116  A    between atoms: _279  and  _281
REMARK  117  A    between atoms: _281  and  _282
REMARK  118  A    between atoms: _281  and  _284
REMARK  119  A    between atoms: _284  and  _285
REMARK  120  A    between atoms: _289  and  ZN_394
REMARK  121  A    between atoms: _290  and  _292
REMARK  122  A    between atoms: _292  and  _293
REMARK  123  A    between atoms: _296  and  _298
REMARK  124  A    between atoms: _298  and  _299
REMARK  125  A    between atoms: _298  and  _301
REMARK  126  A    between atoms: _304  and  _306
REMARK  127  A    between atoms: _306  and  _307
REMARK  128  A    between atoms: _306  and  _309
REMARK  129  A    between atoms: _309  and  _310
REMARK  130  A    between atoms: _310  and  _311
REMARK  131  A    between atoms: _313  and  _315
REMARK  132  A    between atoms: _315  and  _316
REMARK  133  A    between atoms: _315  and  _318
REMARK  134  A    between atoms: _318  and  _319
REMARK  135  A    between atoms: _326  and  _327
REMARK  136  A    between atoms: _332  and  _334
REMARK  137  A    between atoms: _334  and  _335
REMARK  138  A    between atoms: _334  and  _337
REMARK  139  A    between atoms: _337  and  _338
REMARK  140  A    between atoms: _341  and  _343
REMARK  141  A    between atoms: _343  and  _344
REMARK  142  A    between atoms: _343  and  _346
REMARK  143  A    between atoms: _346  and  _347
REMARK  144  A    between atoms: _352  and  _353
REMARK  145  A    between atoms: _355  and  _357
REMARK  146  A    between atoms: _357  and  _358
REMARK  147  A    between atoms: _357  and  _360
REMARK  148  A    between atoms: _360  and  _361
REMARK  149  A    between atoms: _361  and  _362
REMARK  150  A    between atoms: _362  and  _363
REMARK  151  A    between atoms: _363  and  _364
REMARK  152  A    between atoms: _368  and  _370
REMARK  153  A    between atoms: _370  and  _371
REMARK  154  A    between atoms: _370  and  _373
REMARK  155  A    between atoms: _373  and  _374
REMARK  156  A    between atoms: _379  and  _380
REMARK  157  A    between atoms: _382  and  _384
REMARK  158  A    between atoms: _384  and  _385
REMARK  159  A    between atoms: _384  and  _387
REMARK  160  A    between atoms: _387  and  _388
REMARK                            x       y       z     vdW  Elec       q    Type
REMARK                         _______ _______ _______ _____ _____    ______ ____
ROOT
ATOM      1  O   HOH     1      14.544  26.739  -0.357  0.00  0.00    +0.000 OA
ENDROOT
TORSDOF 0
REMARK  Name = ../refined-set-2016/1rmz/1rmz_pocket.pdb
REMARK  160 active torsions:
REMARK  status: ('A' for Active; 'I' for Inactive)
REMARK    1  A    between atoms: _1  and  _3
REMARK    2  A    between atoms: _3  and  _4
REMARK    3  A    between atoms: _3  and  _6
REMARK    4  A    between atoms: _6  and  _7
REMARK    5  A    between atoms: _13  and  _15
REMARK    6  A    between atoms: _15  and  _16
REMARK    7  A    between atoms: _15  and  _18
REMARK    8  A    between atoms: _18  and  _19
REMARK    9  A    between atoms: _22  and  _24
REMARK   10  A    between atoms: _24  and  _25
REMARK   11  A    between atoms: _27  and  _29
REMARK   12  A    between atoms: _29  and  _30
REMARK   13  A    between atoms: _32  and  _34
REMARK   14  A    between atoms: _34  and  _35
REMARK   15  A    between atoms: _34  and  _37
REMARK   16  A    between atoms: _35  and  _36
REMARK   17  A    between atoms: _35  and  _41
REMARK   18  A    between atoms: _36  and  CA_395
REMARK   19  A    between atoms: _37  and  _38
REMARK   20  A    between atoms: _41  and  _43
REMARK   21  A    between atoms: _43  and  _44
REMARK   22  A    between atoms: _43  and  _46
REMARK   23  A    between atoms: _46  and  _47
REMARK   24  A    between atoms: _50  and  _52
REMARK   25  A    between atoms: _52  and  _53
REMARK   26  A    between atoms: _56  and  _58
REMARK   27  A    between atoms: _58  and  _59
REMARK   28  A    between atoms: _58  and  _61
REMARK   29  A    between atoms: _61  and  _62
REMARK   30  A    between atoms: _67  and  _69
REMARK   31  A    between atoms: _69  and  _70
REMARK   32  A    between atoms: _73  and  _75
REMARK   33  A    between atoms: _75  and  _76
REMARK   34  A    between atoms: _75  and  _78
REMARK   35  A    between atoms: _78  and  _79
REMARK   36  A    between atoms: _85  and  _87
REMARK   37  A    between atoms: _87  and  _88
REMARK   38  A    between atoms: _87  and  _90
REMARK   39  A    between atoms: _90  and  _91
REMARK   40  A    between atoms: _96  and  _98
REMARK   41  A    between atoms: _98  and  _99
REMARK   42  A    between atoms: _98  and  _101
REMARK   43  A    between atoms: _101  and  _102
REMARK   44  A    between atoms: _108  and  _110
REMARK   45  A    between atoms: _110  and  _111
REMARK   46  A    between atoms: _110  and  _113
REMARK   47  A    between atoms: _113  and  _114
REMARK   48  A    between atoms: _117  and  _119
REMARK   49  A    between atoms: _119  and  _120
REMARK   50  A    between atoms: _119  and  _122
REMARK   51  A    between atoms: _122  and  _123
REMARK   52  A    between atoms: _123  and  _124
REMARK   53  A    between atoms: _124  and  _126
REMARK   54  A    between atoms: _126  and  CA_395
REMARK   55  A    between atoms: _127  and  _129
REMARK   56  A    between atoms: _129  and  _130
REMARK   57  A    between atoms: _129  and  _132
REMARK   58  A    between atoms: _132  and  _133
REMARK   59  A    between atoms: _143  and  _145
REMARK   60  A    between atoms: _145  and  _146
REMARK   61  A    between atoms: _145  and  _148
REMARK   62  A    between atoms: _148  and  _149
REMARK   63  A    between atoms: _152  and  _154
REMARK   64  A    between atoms: _154  and  _155
REMARK   65  A    between atoms: _154  and  _157
REMARK   66  A    between atoms: _157  and  _158
REMARK   67  A    between atoms: _163  and  _165
REMARK   68  A    between atoms: _165  and  _166
REMARK   69  A    between atoms: _165  and  _168
REMARK   70  A    between atoms: _168  and  _169
REMARK   71  A    between atoms: _172  and  _174
REMARK   72  A    between atoms: _174  and  _175
REMARK   73  A    between atoms: _174  and  _177
REMARK   74  A    between atoms: _177  and  _178
REMARK   75  A    between atoms: _184  and  _186
REMARK   76  A    between atoms: _186  and  _187
REMARK   77  A    between atoms: _186  and  _189
REMARK   78  A    between atoms: _189  and  _190
REMARK   79  A    between atoms: _193  and  _195
REMARK   80  A    between atoms: _195  and  _196
REMARK   81  A    between atoms: _195  and  _198
REMARK   82  A    between atoms: _198  and  _199
REMARK   83  A    between atoms: _202  and  _204
REMARK   84  A    between atoms: _204  and  _205
REMARK   85  A    between atoms: _208  and  _210
REMARK   86  A    between atoms: _210  and  _211
REMARK   87  A    between atoms: _210  and  _213
REMARK   88  A    between atoms: _216  and  _218
REMARK   89  A    between atoms: _218  and  _219
REMARK   90  A    between atoms: _218  and  _221
REMARK   91  A    between atoms: _221  and  _222
REMARK   92  A    between atoms: _226  and  ZN_394
REMARK   93  A    between atoms: _229  and  _230
REMARK   94  A    between atoms: _229  and  _232
REMARK   95  A    between atoms: _232  and  _233
REMARK   96  A    between atoms: _233  and  _234
REMARK   97  A    between atoms: _237  and  _239
REMARK   98  A    between atoms: _239  and  _240
REMARK   99  A    between atoms: _239  and  _242
REMARK  100  A    between atoms: _242  and  _243
REMARK  101  A    between atoms: _246  and  _248
REMARK  102  A    between atoms: _248  and  _249
REMARK  103  A    between atoms: _248  and  _251
REMARK  104  A    between atoms: _251  and  _252
REMARK  105  A    between atoms: _256  and  ZN_394
REMARK  106  A    between atoms: _257  and  _259
REMARK  107  A    between atoms: _259  and  _260
REMARK  108  A    between atoms: _259  and  _262
REMARK  109  A    between atoms: _262  and  _263
REMARK  110  A    between atoms: _265  and  _267
REMARK  111  A    between atoms: _267  and  _268
REMARK  112  A    between atoms: _267  and  _270
REMARK  113  A    between atoms: _270  and  _271
REMARK  114  A    between atoms: _274  and  _276
REMARK  115  A    between atoms: _276  and  _277
REMARK  116  A    between atoms: _279  and  _281
REMARK  117  A    between atoms: _281  and  _282
REMARK  118  A    between atoms: _281  and  _284
REMARK  119  A    between atoms: _284  and  _285
REMARK  120  A    between atoms: _289  and  ZN_394
REMARK  121  A    between atoms: _290  and  _292
REMARK  122  A    between atoms: _292  and  _293
REMARK  123  A    between atoms: _296  and  _298
REMARK  124  A    between atoms: _298  and  _299
REMARK  125  A    between atoms: _298  and  _301
REMARK  126  A    between atoms: _304  and  _306
REMARK  127  A    between atoms: _306  and  _307
REMARK  128  A    between atoms: _306  and  _309
REMARK  129  A    between atoms: _309  and  _310
REMARK  130  A    between atoms: _310  and  _311
REMARK  131  A    between atoms: _313  and  _315
REMARK  132  A    between atoms: _315  and  _316
REMARK  133  A    between atoms: _315  and  _318
REMARK  134  A    between atoms: _318  and  _319
REMARK  135  A    between atoms: _326  and  _327
REMARK  136  A    between atoms: _332  and  _334
REMARK  137  A    between atoms: _334  and  _335
REMARK  138  A    between atoms: _334  and  _337
REMARK  139  A    between atoms: _337  and  _338
REMARK  140  A    between atoms: _341  and  _343
REMARK  141  A    between atoms: _343  and  _344
REMARK  142  A    between atoms: _343  and  _346
REMARK  143  A    between atoms: _346  and  _347
REMARK  144  A    between atoms: _352  and  _353
REMARK  145  A    between atoms: _355  and  _357
REMARK  146  A    between atoms: _357  and  _358
REMARK  147  A    between atoms: _357  and  _360
REMARK  148  A    between atoms: _360  and  _361
REMARK  149  A    between atoms: _361  and  _362
REMARK  150  A    between atoms: _362  and  _363
REMARK  151  A    between atoms: _363  and  _364
REMARK  152  A    between atoms: _368  and  _370
REMARK  153  A    between atoms: _370  and  _371
REMARK  154  A    between atoms: _370  and  _373
REMARK  155  A    between atoms: _373  and  _374
REMARK  156  A    between atoms: _379  and  _380
REMARK  157  A    between atoms: _382  and  _384
REMARK  158  A    between atoms: _384  and  _385
REMARK  159  A    between atoms: _384  and  _387
REMARK  160  A    between atoms: _387  and  _388
REMARK                            x       y       z     vdW  Elec       q    Type
REMARK                         _______ _______ _______ _____ _____    ______ ____
ROOT
ATOM      1  O   HOH     1       2.892  25.901  -6.286  0.00  0.00    +0.000 OA
ENDROOT
TORSDOF 0
REMARK  Name = ../refined-set-2016/1rmz/1rmz_pocket.pdb
REMARK  160 active torsions:
REMARK  status: ('A' for Active; 'I' for Inactive)
REMARK    1  A    between atoms: _1  and  _3
REMARK    2  A    between atoms: _3  and  _4
REMARK    3  A    between atoms: _3  and  _6
REMARK    4  A    between atoms: _6  and  _7
REMARK    5  A    between atoms: _13  and  _15
REMARK    6  A    between atoms: _15  and  _16
REMARK    7  A    between atoms: _15  and  _18
REMARK    8  A    between atoms: _18  and  _19
REMARK    9  A    between atoms: _22  and  _24
REMARK   10  A    between atoms: _24  and  _25
REMARK   11  A    between atoms: _27  and  _29
REMARK   12  A    between atoms: _29  and  _30
REMARK   13  A    between atoms: _32  and  _34
REMARK   14  A    between atoms: _34  and  _35
REMARK   15  A    between atoms: _34  and  _37
REMARK   16  A    between atoms: _35  and  _36
REMARK   17  A    between atoms: _35  and  _41
REMARK   18  A    between atoms: _36  and  CA_395
REMARK   19  A    between atoms: _37  and  _38
REMARK   20  A    between atoms: _41  and  _43
REMARK   21  A    between atoms: _43  and  _44
REMARK   22  A    between atoms: _43  and  _46
REMARK   23  A    between atoms: _46  and  _47
REMARK   24  A    between atoms: _50  and  _52
REMARK   25  A    between atoms: _52  and  _53
REMARK   26  A    between atoms: _56  and  _58
REMARK   27  A    between atoms: _58  and  _59
REMARK   28  A    between atoms: _58  and  _61
REMARK   29  A    between atoms: _61  and  _62
REMARK   30  A    between atoms: _67  and  _69
REMARK   31  A    between atoms: _69  and  _70
REMARK   32  A    between atoms: _73  and  _75
REMARK   33  A    between atoms: _75  and  _76
REMARK   34  A    between atoms: _75  and  _78
REMARK   35  A    between atoms: _78  and  _79
REMARK   36  A    between atoms: _85  and  _87
REMARK   37  A    between atoms: _87  and  _88
REMARK   38  A    between atoms: _87  and  _90
REMARK   39  A    between atoms: _90  and  _91
REMARK   40  A    between atoms: _96  and  _98
REMARK   41  A    between atoms: _98  and  _99
REMARK   42  A    between atoms: _98  and  _101
REMARK   43  A    between atoms: _101  and  _102
REMARK   44  A    between atoms: _108  and  _110
REMARK   45  A    between atoms: _110  and  _111
REMARK   46  A    between atoms: _110  and  _113
REMARK   47  A    between atoms: _113  and  _114
REMARK   48  A    between atoms: _117  and  _119
REMARK   49  A    between atoms: _119  and  _120
REMARK   50  A    between atoms: _119  and  _122
REMARK   51  A    between atoms: _122  and  _123
REMARK   52  A    between atoms: _123  and  _124
REMARK   53  A    between atoms: _124  and  _126
REMARK   54  A    between atoms: _126  and  CA_395
REMARK   55  A    between atoms: _127  and  _129
REMARK   56  A    between atoms: _129  and  _130
REMARK   57  A    between atoms: _129  and  _132
REMARK   58  A    between atoms: _132  and  _133
REMARK   59  A    between atoms: _143  and  _145
REMARK   60  A    between atoms: _145  and  _146
REMARK   61  A    between atoms: _145  and  _148
REMARK   62  A    between atoms: _148  and  _149
REMARK   63  A    between atoms: _152  and  _154
REMARK   64  A    between atoms: _154  and  _155
REMARK   65  A    between atoms: _154  and  _157
REMARK   66  A    between atoms: _157  and  _158
REMARK   67  A    between atoms: _163  and  _165
REMARK   68  A    between atoms: _165  and  _166
REMARK   69  A    between atoms: _165  and  _168
REMARK   70  A    between atoms: _168  and  _169
REMARK   71  A    between atoms: _172  and  _174
REMARK   72  A    between atoms: _174  and  _175
REMARK   73  A    between atoms: _174  and  _177
REMARK   74  A    between atoms: _177  and  _178
REMARK   75  A    between atoms: _184  and  _186
REMARK   76  A    between atoms: _186  and  _187
REMARK   77  A    between atoms: _186  and  _189
REMARK   78  A    between atoms: _189  and  _190
REMARK   79  A    between atoms: _193  and  _195
REMARK   80  A    between atoms: _195  and  _196
REMARK   81  A    between atoms: _195  and  _198
REMARK   82  A    between atoms: _198  and  _199
REMARK   83  A    between atoms: _202  and  _204
REMARK   84  A    between atoms: _204  and  _205
REMARK   85  A    between atoms: _208  and  _210
REMARK   86  A    between atoms: _210  and  _211
REMARK   87  A    between atoms: _210  and  _213
REMARK   88  A    between atoms: _216  and  _218
REMARK   89  A    between atoms: _218  and  _219
REMARK   90  A    between atoms: _218  and  _221
REMARK   91  A    between atoms: _221  and  _222
REMARK   92  A    between atoms: _226  and  ZN_394
REMARK   93  A    between atoms: _229  and  _230
REMARK   94  A    between atoms: _229  and  _232
REMARK   95  A    between atoms: _232  and  _233
REMARK   96  A    between atoms: _233  and  _234
REMARK   97  A    between atoms: _237  and  _239
REMARK   98  A    between atoms: _239  and  _240
REMARK   99  A    between atoms: _239  and  _242
REMARK  100  A    between atoms: _242  and  _243
REMARK  101  A    between atoms: _246  and  _248
REMARK  102  A    between atoms: _248  and  _249
REMARK  103  A    between atoms: _248  and  _251
REMARK  104  A    between atoms: _251  and  _252
REMARK  105  A    between atoms: _256  and  ZN_394
REMARK  106  A    between atoms: _257  and  _259
REMARK  107  A    between atoms: _259  and  _260
REMARK  108  A    between atoms: _259  and  _262
REMARK  109  A    between atoms: _262  and  _263
REMARK  110  A    between atoms: _265  and  _267
REMARK  111  A    between atoms: _267  and  _268
REMARK  112  A    between atoms: _267  and  _270
REMARK  113  A    between atoms: _270  and  _271
REMARK  114  A    between atoms: _274  and  _276
REMARK  115  A    between atoms: _276  and  _277
REMARK  116  A    between atoms: _279  and  _281
REMARK  117  A    between atoms: _281  and  _282
REMARK  118  A    between atoms: _281  and  _284
REMARK  119  A    between atoms: _284  and  _285
REMARK  120  A    between atoms: _289  and  ZN_394
REMARK  121  A    between atoms: _290  and  _292
REMARK  122  A    between atoms: _292  and  _293
REMARK  123  A    between atoms: _296  and  _298
REMARK  124  A    between atoms: _298  and  _299
REMARK  125  A    between atoms: _298  and  _301
REMARK  126  A    between atoms: _304  and  _306
REMARK  127  A    between atoms: _306  and  _307
REMARK  128  A    between atoms: _306  and  _309
REMARK  129  A    between atoms: _309  and  _310
REMARK  130  A    between atoms: _310  and  _311
REMARK  131  A    between atoms: _313  and  _315
REMARK  132  A    between atoms: _315  and  _316
REMARK  133  A    between atoms: _315  and  _318
REMARK  134  A    between atoms: _318  and  _319
REMARK  135  A    between atoms: _326  and  _327
REMARK  136  A    between atoms: _332  and  _334
REMARK  137  A    between atoms: _334  and  _335
REMARK  138  A    between atoms: _334  and  _337
REMARK  139  A    between atoms: _337  and  _338
REMARK  140  A    between atoms: _341  and  _343
REMARK  141  A    between atoms: _343  and  _344
REMARK  142  A    between atoms: _343  and  _346
REMARK  143  A    between atoms: _346  and  _347
REMARK  144  A    between atoms: _352  and  _353
REMARK  145  A    between atoms: _355  and  _357
REMARK  146  A    between atoms: _357  and  _358
REMARK  147  A    between atoms: _357  and  _360
REMARK  148  A    between atoms: _360  and  _361
REMARK  149  A    between atoms: _361  and  _362
REMARK  150  A    between atoms: _362  and  _363
REMARK  151  A    between atoms: _363  and  _364
REMARK  152  A    between atoms: _368  and  _370
REMARK  153  A    between atoms: _370  and  _371
REMARK  154  A    between atoms: _370  and  _373
REMARK  155  A    between atoms: _373  and  _374
REMARK  156  A    between atoms: _379  and  _380
REMARK  157  A    between atoms: _382  and  _384
REMARK  158  A    between atoms: _384  and  _385
REMARK  159  A    between atoms: _384  and  _387
REMARK  160  A    between atoms: _387  and  _388
REMARK                            x       y       z     vdW  Elec       q    Type
REMARK                         _______ _______ _______ _____ _____    ______ ____
ROOT
ATOM      1  O   HOH     1      -0.868  21.898   8.960  0.00  0.00    +0.000 OA
ENDROOT
TORSDOF 0
REMARK  Name = ../refined-set-2016/1rmz/1rmz_pocket.pdb
REMARK  160 active torsions:
REMARK  status: ('A' for Active; 'I' for Inactive)
REMARK    1  A    between atoms: _1  and  _3
REMARK    2  A    between atoms: _3  and  _4
REMARK    3  A    between atoms: _3  and  _6
REMARK    4  A    between atoms: _6  and  _7
REMARK    5  A    between atoms: _13  and  _15
REMARK    6  A    between atoms: _15  and  _16
REMARK    7  A    between atoms: _15  and  _18
REMARK    8  A    between atoms: _18  and  _19
REMARK    9  A    between atoms: _22  and  _24
REMARK   10  A    between atoms: _24  and  _25
REMARK   11  A    between atoms: _27  and  _29
REMARK   12  A    between atoms: _29  and  _30
REMARK   13  A    between atoms: _32  and  _34
REMARK   14  A    between atoms: _34  and  _35
REMARK   15  A    between atoms: _34  and  _37
REMARK   16  A    between atoms: _35  and  _36
REMARK   17  A    between atoms: _35  and  _41
REMARK   18  A    between atoms: _36  and  CA_395
REMARK   19  A    between atoms: _37  and  _38
REMARK   20  A    between atoms: _41  and  _43
REMARK   21  A    between atoms: _43  and  _44
REMARK   22  A    between atoms: _43  and  _46
REMARK   23  A    between atoms: _46  and  _47
REMARK   24  A    between atoms: _50  and  _52
REMARK   25  A    between atoms: _52  and  _53
REMARK   26  A    between atoms: _56  and  _58
REMARK   27  A    between atoms: _58  and  _59
REMARK   28  A    between atoms: _58  and  _61
REMARK   29  A    between atoms: _61  and  _62
REMARK   30  A    between atoms: _67  and  _69
REMARK   31  A    between atoms: _69  and  _70
REMARK   32  A    between atoms: _73  and  _75
REMARK   33  A    between atoms: _75  and  _76
REMARK   34  A    between atoms: _75  and  _78
REMARK   35  A    between atoms: _78  and  _79
REMARK   36  A    between atoms: _85  and  _87
REMARK   37  A    between atoms: _87  and  _88
REMARK   38  A    between atoms: _87  and  _90
REMARK   39  A    between atoms: _90  and  _91
REMARK   40  A    between atoms: _96  and  _98
REMARK   41  A    between atoms: _98  and  _99
REMARK   42  A    between atoms: _98  and  _101
REMARK   43  A    between atoms: _101  and  _102
REMARK   44  A    between atoms: _108  and  _110
REMARK   45  A    between atoms: _110  and  _111
REMARK   46  A    between atoms: _110  and  _113
REMARK   47  A    between atoms: _113  and  _114
REMARK   48  A    between atoms: _117  and  _119
REMARK   49  A    between atoms: _119  and  _120
REMARK   50  A    between atoms: _119  and  _122
REMARK   51  A    between atoms: _122  and  _123
REMARK   52  A    between atoms: _123  and  _124
REMARK   53  A    between atoms: _124  and  _126
REMARK   54  A    between atoms: _126  and  CA_395
REMARK   55  A    between atoms: _127  and  _129
REMARK   56  A    between atoms: _129  and  _130
REMARK   57  A    between atoms: _129  and  _132
REMARK   58  A    between atoms: _132  and  _133
REMARK   59  A    between atoms: _143  and  _145
REMARK   60  A    between atoms: _145  and  _146
REMARK   61  A    between atoms: _145  and  _148
REMARK   62  A    between atoms: _148  and  _149
REMARK   63  A    between atoms: _152  and  _154
REMARK   64  A    between atoms: _154  and  _155
REMARK   65  A    between atoms: _154  and  _157
REMARK   66  A    between atoms: _157  and  _158
REMARK   67  A    between atoms: _163  and  _165
REMARK   68  A    between atoms: _165  and  _166
REMARK   69  A    between atoms: _165  and  _168
REMARK   70  A    between atoms: _168  and  _169
REMARK   71  A    between atoms: _172  and  _174
REMARK   72  A    between atoms: _174  and  _175
REMARK   73  A    between atoms: _174  and  _177
REMARK   74  A    between atoms: _177  and  _178
REMARK   75  A    between atoms: _184  and  _186
REMARK   76  A    between atoms: _186  and  _187
REMARK   77  A    between atoms: _186  and  _189
REMARK   78  A    between atoms: _189  and  _190
REMARK   79  A    between atoms: _193  and  _195
REMARK   80  A    between atoms: _195  and  _196
REMARK   81  A    between atoms: _195  and  _198
REMARK   82  A    between atoms: _198  and  _199
REMARK   83  A    between atoms: _202  and  _204
REMARK   84  A    between atoms: _204  and  _205
REMARK   85  A    between atoms: _208  and  _210
REMARK   86  A    between atoms: _210  and  _211
REMARK   87  A    between atoms: _210  and  _213
REMARK   88  A    between atoms: _216  and  _218
REMARK   89  A    between atoms: _218  and  _219
REMARK   90  A    between atoms: _218  and  _221
REMARK   91  A    between atoms: _221  and  _222
REMARK   92  A    between atoms: _226  and  ZN_394
REMARK   93  A    between atoms: _229  and  _230
REMARK   94  A    between atoms: _229  and  _232
REMARK   95  A    between atoms: _232  and  _233
REMARK   96  A    between atoms: _233  and  _234
REMARK   97  A    between atoms: _237  and  _239
REMARK   98  A    between atoms: _239  and  _240
REMARK   99  A    between atoms: _239  and  _242
REMARK  100  A    between atoms: _242  and  _243
REMARK  101  A    between atoms: _246  and  _248
REMARK  102  A    between atoms: _248  and  _249
REMARK  103  A    between atoms: _248  and  _251
REMARK  104  A    between atoms: _251  and  _252
REMARK  105  A    between atoms: _256  and  ZN_394
REMARK  106  A    between atoms: _257  and  _259
REMARK  107  A    between atoms: _259  and  _260
REMARK  108  A    between atoms: _259  and  _262
REMARK  109  A    between atoms: _262  and  _263
REMARK  110  A    between atoms: _265  and  _267
REMARK  111  A    between atoms: _267  and  _268
REMARK  112  A    between atoms: _267  and  _270
REMARK  113  A    between atoms: _270  and  _271
REMARK  114  A    between atoms: _274  and  _276
REMARK  115  A    between atoms: _276  and  _277
REMARK  116  A    between atoms: _279  and  _281
REMARK  117  A    between atoms: _281  and  _282
REMARK  118  A    between atoms: _281  and  _284
REMARK  119  A    between atoms: _284  and  _285
REMARK  120  A    between atoms: _289  and  ZN_394
REMARK  121  A    between atoms: _290  and  _292
REMARK  122  A    between atoms: _292  and  _293
REMARK  123  A    between atoms: _296  and  _298
REMARK  124  A    between atoms: _298  and  _299
REMARK  125  A    between atoms: _298  and  _301
REMARK  126  A    between atoms: _304  and  _306
REMARK  127  A    between atoms: _306  and  _307
REMARK  128  A    between atoms: _306  and  _309
REMARK  129  A    between atoms: _309  and  _310
REMARK  130  A    between atoms: _310  and  _311
REMARK  131  A    between atoms: _313  and  _315
REMARK  132  A    between atoms: _315  and  _316
REMARK  133  A    between atoms: _315  and  _318
REMARK  134  A    between atoms: _318  and  _319
REMARK  135  A    between atoms: _326  and  _327
REMARK  136  A    between atoms: _332  and  _334
REMARK  137  A    between atoms: _334  and  _335
REMARK  138  A    between atoms: _334  and  _337
REMARK  139  A    between atoms: _337  and  _338
REMARK  140  A    between atoms: _341  and  _343
REMARK  141  A    between atoms: _343  and  _344
REMARK  142  A    between atoms: _343  and  _346
REMARK  143  A    between atoms: _346  and  _347
REMARK  144  A    between atoms: _352  and  _353
REMARK  145  A    between atoms: _355  and  _357
REMARK  146  A    between atoms: _357  and  _358
REMARK  147  A    between atoms: _357  and  _360
REMARK  148  A    between atoms: _360  and  _361
REMARK  149  A    between atoms: _361  and  _362
REMARK  150  A    between atoms: _362  and  _363
REMARK  151  A    between atoms: _363  and  _364
REMARK  152  A    between atoms: _368  and  _370
REMARK  153  A    between atoms: _370  and  _371
REMARK  154  A    between atoms: _370  and  _373
REMARK  155  A    between atoms: _373  and  _374
REMARK  156  A    between atoms: _379  and  _380
REMARK  157  A    between atoms: _382  and  _384
REMARK  158  A    between atoms: _384  and  _385
REMARK  159  A    between atoms: _384  and  _387
REMARK  160  A    between atoms: _387  and  _388
REMARK                            x       y       z     vdW  Elec       q    Type
REMARK                         _______ _______ _______ _____ _____    ______ ____
ROOT
ATOM      1  O   HOH     1       4.094  29.302  -3.551  0.00  0.00    +0.000 OA
ENDROOT
TORSDOF 0
REMARK  Name = ../refined-set-2016/1rmz/1rmz_pocket.pdb
REMARK  160 active torsions:
REMARK  status: ('A' for Active; 'I' for Inactive)
REMARK    1  A    between atoms: _1  and  _3
REMARK    2  A    between atoms: _3  and  _4
REMARK    3  A    between atoms: _3  and  _6
REMARK    4  A    between atoms: _6  and  _7
REMARK    5  A    between atoms: _13  and  _15
REMARK    6  A    between atoms: _15  and  _16
REMARK    7  A    between atoms: _15  and  _18
REMARK    8  A    between atoms: _18  and  _19
REMARK    9  A    between atoms: _22  and  _24
REMARK   10  A    between atoms: _24  and  _25
REMARK   11  A    between atoms: _27  and  _29
REMARK   12  A    between atoms: _29  and  _30
REMARK   13  A    between atoms: _32  and  _34
REMARK   14  A    between atoms: _34  and  _35
REMARK   15  A    between atoms: _34  and  _37
REMARK   16  A    between atoms: _35  and  _36
REMARK   17  A    between atoms: _35  and  _41
REMARK   18  A    between atoms: _36  and  CA_395
REMARK   19  A    between atoms: _37  and  _38
REMARK   20  A    between atoms: _41  and  _43
REMARK   21  A    between atoms: _43  and  _44
REMARK   22  A    between atoms: _43  and  _46
REMARK   23  A    between atoms: _46  and  _47
REMARK   24  A    between atoms: _50  and  _52
REMARK   25  A    between atoms: _52  and  _53
REMARK   26  A    between atoms: _56  and  _58
REMARK   27  A    between atoms: _58  and  _59
REMARK   28  A    between atoms: _58  and  _61
REMARK   29  A    between atoms: _61  and  _62
REMARK   30  A    between atoms: _67  and  _69
REMARK   31  A    between atoms: _69  and  _70
REMARK   32  A    between atoms: _73  and  _75
REMARK   33  A    between atoms: _75  and  _76
REMARK   34  A    between atoms: _75  and  _78
REMARK   35  A    between atoms: _78  and  _79
REMARK   36  A    between atoms: _85  and  _87
REMARK   37  A    between atoms: _87  and  _88
REMARK   38  A    between atoms: _87  and  _90
REMARK   39  A    between atoms: _90  and  _91
REMARK   40  A    between atoms: _96  and  _98
REMARK   41  A    between atoms: _98  and  _99
REMARK   42  A    between atoms: _98  and  _101
REMARK   43  A    between atoms: _101  and  _102
REMARK   44  A    between atoms: _108  and  _110
REMARK   45  A    between atoms: _110  and  _111
REMARK   46  A    between atoms: _110  and  _113
REMARK   47  A    between atoms: _113  and  _114
REMARK   48  A    between atoms: _117  and  _119
REMARK   49  A    between atoms: _119  and  _120
REMARK   50  A    between atoms: _119  and  _122
REMARK   51  A    between atoms: _122  and  _123
REMARK   52  A    between atoms: _123  and  _124
REMARK   53  A    between atoms: _124  and  _126
REMARK   54  A    between atoms: _126  and  CA_395
REMARK   55  A    between atoms: _127  and  _129
REMARK   56  A    between atoms: _129  and  _130
REMARK   57  A    between atoms: _129  and  _132
REMARK   58  A    between atoms: _132  and  _133
REMARK   59  A    between atoms: _143  and  _145
REMARK   60  A    between atoms: _145  and  _146
REMARK   61  A    between atoms: _145  and  _148
REMARK   62  A    between atoms: _148  and  _149
REMARK   63  A    between atoms: _152  and  _154
REMARK   64  A    between atoms: _154  and  _155
REMARK   65  A    between atoms: _154  and  _157
REMARK   66  A    between atoms: _157  and  _158
REMARK   67  A    between atoms: _163  and  _165
REMARK   68  A    between atoms: _165  and  _166
REMARK   69  A    between atoms: _165  and  _168
REMARK   70  A    between atoms: _168  and  _169
REMARK   71  A    between atoms: _172  and  _174
REMARK   72  A    between atoms: _174  and  _175
REMARK   73  A    between atoms: _174  and  _177
REMARK   74  A    between atoms: _177  and  _178
REMARK   75  A    between atoms: _184  and  _186
REMARK   76  A    between atoms: _186  and  _187
REMARK   77  A    between atoms: _186  and  _189
REMARK   78  A    between atoms: _189  and  _190
REMARK   79  A    between atoms: _193  and  _195
REMARK   80  A    between atoms: _195  and  _196
REMARK   81  A    between atoms: _195  and  _198
REMARK   82  A    between atoms: _198  and  _199
REMARK   83  A    between atoms: _202  and  _204
REMARK   84  A    between atoms: _204  and  _205
REMARK   85  A    between atoms: _208  and  _210
REMARK   86  A    between atoms: _210  and  _211
REMARK   87  A    between atoms: _210  and  _213
REMARK   88  A    between atoms: _216  and  _218
REMARK   89  A    between atoms: _218  and  _219
REMARK   90  A    between atoms: _218  and  _221
REMARK   91  A    between atoms: _221  and  _222
REMARK   92  A    between atoms: _226  and  ZN_394
REMARK   93  A    between atoms: _229  and  _230
REMARK   94  A    between atoms: _229  and  _232
REMARK   95  A    between atoms: _232  and  _233
REMARK   96  A    between atoms: _233  and  _234
REMARK   97  A    between atoms: _237  and  _239
REMARK   98  A    between atoms: _239  and  _240
REMARK   99  A    between atoms: _239  and  _242
REMARK  100  A    between atoms: _242  and  _243
REMARK  101  A    between atoms: _246  and  _248
REMARK  102  A    between atoms: _248  and  _249
REMARK  103  A    between atoms: _248  and  _251
REMARK  104  A    between atoms: _251  and  _252
REMARK  105  A    between atoms: _256  and  ZN_394
REMARK  106  A    between atoms: _257  and  _259
REMARK  107  A    between atoms: _259  and  _260
REMARK  108  A    between atoms: _259  and  _262
REMARK  109  A    between atoms: _262  and  _263
REMARK  110  A    between atoms: _265  and  _267
REMARK  111  A    between atoms: _267  and  _268
REMARK  112  A    between atoms: _267  and  _270
REMARK  113  A    between atoms: _270  and  _271
REMARK  114  A    between atoms: _274  and  _276
REMARK  115  A    between atoms: _276  and  _277
REMARK  116  A    between atoms: _279  and  _281
REMARK  117  A    between atoms: _281  and  _282
REMARK  118  A    between atoms: _281  and  _284
REMARK  119  A    between atoms: _284  and  _285
REMARK  120  A    between atoms: _289  and  ZN_394
REMARK  121  A    between atoms: _290  and  _292
REMARK  122  A    between atoms: _292  and  _293
REMARK  123  A    between atoms: _296  and  _298
REMARK  124  A    between atoms: _298  and  _299
REMARK  125  A    between atoms: _298  and  _301
REMARK  126  A    between atoms: _304  and  _306
REMARK  127  A    between atoms: _306  and  _307
REMARK  128  A    between atoms: _306  and  _309
REMARK  129  A    between atoms: _309  and  _310
REMARK  130  A    between atoms: _310  and  _311
REMARK  131  A    between atoms: _313  and  _315
REMARK  132  A    between atoms: _315  and  _316
REMARK  133  A    between atoms: _315  and  _318
REMARK  134  A    between atoms: _318  and  _319
REMARK  135  A    between atoms: _326  and  _327
REMARK  136  A    between atoms: _332  and  _334
REMARK  137  A    between atoms: _334  and  _335
REMARK  138  A    between atoms: _334  and  _337
REMARK  139  A    between atoms: _337  and  _338
REMARK  140  A    between atoms: _341  and  _343
REMARK  141  A    between atoms: _343  and  _344
REMARK  142  A    between atoms: _343  and  _346
REMARK  143  A    between atoms: _346  and  _347
REMARK  144  A    between atoms: _352  and  _353
REMARK  145  A    between atoms: _355  and  _357
REMARK  146  A    between atoms: _357  and  _358
REMARK  147  A    between atoms: _357  and  _360
REMARK  148  A    between atoms: _360  and  _361
REMARK  149  A    between atoms: _361  and  _362
REMARK  150  A    between atoms: _362  and  _363
REMARK  151  A    between atoms: _363  and  _364
REMARK  152  A    between atoms: _368  and  _370
REMARK  153  A    between atoms: _370  and  _371
REMARK  154  A    between atoms: _370  and  _373
REMARK  155  A    between atoms: _373  and  _374
REMARK  156  A    between atoms: _379  and  _380
REMARK  157  A    between atoms: _382  and  _384
REMARK  158  A    between atoms: _384  and  _385
REMARK  159  A    between atoms: _384  and  _387
REMARK  160  A    between atoms: _387  and  _388
REMARK                            x       y       z     vdW  Elec       q    Type
REMARK                         _______ _______ _______ _____ _____    ______ ____
ROOT
ATOM      1  O   HOH     1       5.271  24.234  -5.281  0.00  0.00    +0.000 OA
ENDROOT
TORSDOF 0
REMARK  Name = ../refined-set-2016/1rmz/1rmz_pocket.pdb
REMARK  160 active torsions:
REMARK  status: ('A' for Active; 'I' for Inactive)
REMARK    1  A    between atoms: _1  and  _3
REMARK    2  A    between atoms: _3  and  _4
REMARK    3  A    between atoms: _3  and  _6
REMARK    4  A    between atoms: _6  and  _7
REMARK    5  A    between atoms: _13  and  _15
REMARK    6  A    between atoms: _15  and  _16
REMARK    7  A    between atoms: _15  and  _18
REMARK    8  A    between atoms: _18  and  _19
REMARK    9  A    between atoms: _22  and  _24
REMARK   10  A    between atoms: _24  and  _25
REMARK   11  A    between atoms: _27  and  _29
REMARK   12  A    between atoms: _29  and  _30
REMARK   13  A    between atoms: _32  and  _34
REMARK   14  A    between atoms: _34  and  _35
REMARK   15  A    between atoms: _34  and  _37
REMARK   16  A    between atoms: _35  and  _36
REMARK   17  A    between atoms: _35  and  _41
REMARK   18  A    between atoms: _36  and  CA_395
REMARK   19  A    between atoms: _37  and  _38
REMARK   20  A    between atoms: _41  and  _43
REMARK   21  A    between atoms: _43  and  _44
REMARK   22  A    between atoms: _43  and  _46
REMARK   23  A    between atoms: _46  and  _47
REMARK   24  A    between atoms: _50  and  _52
REMARK   25  A    between atoms: _52  and  _53
REMARK   26  A    between atoms: _56  and  _58
REMARK   27  A    between atoms: _58  and  _59
REMARK   28  A    between atoms: _58  and  _61
REMARK   29  A    between atoms: _61  and  _62
REMARK   30  A    between atoms: _67  and  _69
REMARK   31  A    between atoms: _69  and  _70
REMARK   32  A    between atoms: _73  and  _75
REMARK   33  A    between atoms: _75  and  _76
REMARK   34  A    between atoms: _75  and  _78
REMARK   35  A    between atoms: _78  and  _79
REMARK   36  A    between atoms: _85  and  _87
REMARK   37  A    between atoms: _87  and  _88
REMARK   38  A    between atoms: _87  and  _90
REMARK   39  A    between atoms: _90  and  _91
REMARK   40  A    between atoms: _96  and  _98
REMARK   41  A    between atoms: _98  and  _99
REMARK   42  A    between atoms: _98  and  _101
REMARK   43  A    between atoms: _101  and  _102
REMARK   44  A    between atoms: _108  and  _110
REMARK   45  A    between atoms: _110  and  _111
REMARK   46  A    between atoms: _110  and  _113
REMARK   47  A    between atoms: _113  and  _114
REMARK   48  A    between atoms: _117  and  _119
REMARK   49  A    between atoms: _119  and  _120
REMARK   50  A    between atoms: _119  and  _122
REMARK   51  A    between atoms: _122  and  _123
REMARK   52  A    between atoms: _123  and  _124
REMARK   53  A    between atoms: _124  and  _126
REMARK   54  A    between atoms: _126  and  CA_395
REMARK   55  A    between atoms: _127  and  _129
REMARK   56  A    between atoms: _129  and  _130
REMARK   57  A    between atoms: _129  and  _132
REMARK   58  A    between atoms: _132  and  _133
REMARK   59  A    between atoms: _143  and  _145
REMARK   60  A    between atoms: _145  and  _146
REMARK   61  A    between atoms: _145  and  _148
REMARK   62  A    between atoms: _148  and  _149
REMARK   63  A    between atoms: _152  and  _154
REMARK   64  A    between atoms: _154  and  _155
REMARK   65  A    between atoms: _154  and  _157
REMARK   66  A    between atoms: _157  and  _158
REMARK   67  A    between atoms: _163  and  _165
REMARK   68  A    between atoms: _165  and  _166
REMARK   69  A    between atoms: _165  and  _168
REMARK   70  A    between atoms: _168  and  _169
REMARK   71  A    between atoms: _172  and  _174
REMARK   72  A    between atoms: _174  and  _175
REMARK   73  A    between atoms: _174  and  _177
REMARK   74  A    between atoms: _177  and  _178
REMARK   75  A    between atoms: _184  and  _186
REMARK   76  A    between atoms: _186  and  _187
REMARK   77  A    between atoms: _186  and  _189
REMARK   78  A    between atoms: _189  and  _190
REMARK   79  A    between atoms: _193  and  _195
REMARK   80  A    between atoms: _195  and  _196
REMARK   81  A    between atoms: _195  and  _198
REMARK   82  A    between atoms: _198  and  _199
REMARK   83  A    between atoms: _202  and  _204
REMARK   84  A    between atoms: _204  and  _205
REMARK   85  A    between atoms: _208  and  _210
REMARK   86  A    between atoms: _210  and  _211
REMARK   87  A    between atoms: _210  and  _213
REMARK   88  A    between atoms: _216  and  _218
REMARK   89  A    between atoms: _218  and  _219
REMARK   90  A    between atoms: _218  and  _221
REMARK   91  A    between atoms: _221  and  _222
REMARK   92  A    between atoms: _226  and  ZN_394
REMARK   93  A    between atoms: _229  and  _230
REMARK   94  A    between atoms: _229  and  _232
REMARK   95  A    between atoms: _232  and  _233
REMARK   96  A    between atoms: _233  and  _234
REMARK   97  A    between atoms: _237  and  _239
REMARK   98  A    between atoms: _239  and  _240
REMARK   99  A    between atoms: _239  and  _242
REMARK  100  A    between atoms: _242  and  _243
REMARK  101  A    between atoms: _246  and  _248
REMARK  102  A    between atoms: _248  and  _249
REMARK  103  A    between atoms: _248  and  _251
REMARK  104  A    between atoms: _251  and  _252
REMARK  105  A    between atoms: _256  and  ZN_394
REMARK  106  A    between atoms: _257  and  _259
REMARK  107  A    between atoms: _259  and  _260
REMARK  108  A    between atoms: _259  and  _262
REMARK  109  A    between atoms: _262  and  _263
REMARK  110  A    between atoms: _265  and  _267
REMARK  111  A    between atoms: _267  and  _268
REMARK  112  A    between atoms: _267  and  _270
REMARK  113  A    between atoms: _270  and  _271
REMARK  114  A    between atoms: _274  and  _276
REMARK  115  A    between atoms: _276  and  _277
REMARK  116  A    between atoms: _279  and  _281
REMARK  117  A    between atoms: _281  and  _282
REMARK  118  A    between atoms: _281  and  _284
REMARK  119  A    between atoms: _284  and  _285
REMARK  120  A    between atoms: _289  and  ZN_394
REMARK  121  A    between atoms: _290  and  _292
REMARK  122  A    between atoms: _292  and  _293
REMARK  123  A    between atoms: _296  and  _298
REMARK  124  A    between atoms: _298  and  _299
REMARK  125  A    between atoms: _298  and  _301
REMARK  126  A    between atoms: _304  and  _306
REMARK  127  A    between atoms: _306  and  _307
REMARK  128  A    between atoms: _306  and  _309
REMARK  129  A    between atoms: _309  and  _310
REMARK  130  A    between atoms: _310  and  _311
REMARK  131  A    between atoms: _313  and  _315
REMARK  132  A    between atoms: _315  and  _316
REMARK  133  A    between atoms: _315  and  _318
REMARK  134  A    between atoms: _318  and  _319
REMARK  135  A    between atoms: _326  and  _327
REMARK  136  A    between atoms: _332  and  _334
REMARK  137  A    between atoms: _334  and  _335
REMARK  138  A    between atoms: _334  and  _337
REMARK  139  A    between atoms: _337  and  _338
REMARK  140  A    between atoms: _341  and  _343
REMARK  141  A    between atoms: _343  and  _344
REMARK  142  A    between atoms: _343  and  _346
REMARK  143  A    between atoms: _346  and  _347
REMARK  144  A    between atoms: _352  and  _353
REMARK  145  A    between atoms: _355  and  _357
REMARK  146  A    between atoms: _357  and  _358
REMARK  147  A    between atoms: _357  and  _360
REMARK  148  A    between atoms: _360  and  _361
REMARK  149  A    between atoms: _361  and  _362
REMARK  150  A    between atoms: _362  and  _363
REMARK  151  A    between atoms: _363  and  _364
REMARK  152  A    between atoms: _368  and  _370
REMARK  153  A    between atoms: _370  and  _371
REMARK  154  A    between atoms: _370  and  _373
REMARK  155  A    between atoms: _373  and  _374
REMARK  156  A    between atoms: _379  and  _380
REMARK  157  A    between atoms: _382  and  _384
REMARK  158  A    between atoms: _384  and  _385
REMARK  159  A    between atoms: _384  and  _387
REMARK  160  A    between atoms: _387  and  _388
REMARK                            x       y       z     vdW  Elec       q    Type
REMARK                         _______ _______ _______ _____ _____    ______ ____
ROOT
ATOM      1  O   HOH     1      -1.209  26.151   7.191  0.00  0.00    +0.000 OA
ENDROOT
TORSDOF 0
REMARK  Name = ../refined-set-2016/1rmz/1rmz_pocket.pdb
REMARK  160 active torsions:
REMARK  status: ('A' for Active; 'I' for Inactive)
REMARK    1  A    between atoms: _1  and  _3
REMARK    2  A    between atoms: _3  and  _4
REMARK    3  A    between atoms: _3  and  _6
REMARK    4  A    between atoms: _6  and  _7
REMARK    5  A    between atoms: _13  and  _15
REMARK    6  A    between atoms: _15  and  _16
REMARK    7  A    between atoms: _15  and  _18
REMARK    8  A    between atoms: _18  and  _19
REMARK    9  A    between atoms: _22  and  _24
REMARK   10  A    between atoms: _24  and  _25
REMARK   11  A    between atoms: _27  and  _29
REMARK   12  A    between atoms: _29  and  _30
REMARK   13  A    between atoms: _32  and  _34
REMARK   14  A    between atoms: _34  and  _35
REMARK   15  A    between atoms: _34  and  _37
REMARK   16  A    between atoms: _35  and  _36
REMARK   17  A    between atoms: _35  and  _41
REMARK   18  A    between atoms: _36  and  CA_395
REMARK   19  A    between atoms: _37  and  _38
REMARK   20  A    between atoms: _41  and  _43
REMARK   21  A    between atoms: _43  and  _44
REMARK   22  A    between atoms: _43  and  _46
REMARK   23  A    between atoms: _46  and  _47
REMARK   24  A    between atoms: _50  and  _52
REMARK   25  A    between atoms: _52  and  _53
REMARK   26  A    between atoms: _56  and  _58
REMARK   27  A    between atoms: _58  and  _59
REMARK   28  A    between atoms: _58  and  _61
REMARK   29  A    between atoms: _61  and  _62
REMARK   30  A    between atoms: _67  and  _69
REMARK   31  A    between atoms: _69  and  _70
REMARK   32  A    between atoms: _73  and  _75
REMARK   33  A    between atoms: _75  and  _76
REMARK   34  A    between atoms: _75  and  _78
REMARK   35  A    between atoms: _78  and  _79
REMARK   36  A    between atoms: _85  and  _87
REMARK   37  A    between atoms: _87  and  _88
REMARK   38  A    between atoms: _87  and  _90
REMARK   39  A    between atoms: _90  and  _91
REMARK   40  A    between atoms: _96  and  _98
REMARK   41  A    between atoms: _98  and  _99
REMARK   42  A    between atoms: _98  and  _101
REMARK   43  A    between atoms: _101  and  _102
REMARK   44  A    between atoms: _108  and  _110
REMARK   45  A    between atoms: _110  and  _111
REMARK   46  A    between atoms: _110  and  _113
REMARK   47  A    between atoms: _113  and  _114
REMARK   48  A    between atoms: _117  and  _119
REMARK   49  A    between atoms: _119  and  _120
REMARK   50  A    between atoms: _119  and  _122
REMARK   51  A    between atoms: _122  and  _123
REMARK   52  A    between atoms: _123  and  _124
REMARK   53  A    between atoms: _124  and  _126
REMARK   54  A    between atoms: _126  and  CA_395
REMARK   55  A    between atoms: _127  and  _129
REMARK   56  A    between atoms: _129  and  _130
REMARK   57  A    between atoms: _129  and  _132
REMARK   58  A    between atoms: _132  and  _133
REMARK   59  A    between atoms: _143  and  _145
REMARK   60  A    between atoms: _145  and  _146
REMARK   61  A    between atoms: _145  and  _148
REMARK   62  A    between atoms: _148  and  _149
REMARK   63  A    between atoms: _152  and  _154
REMARK   64  A    between atoms: _154  and  _155
REMARK   65  A    between atoms: _154  and  _157
REMARK   66  A    between atoms: _157  and  _158
REMARK   67  A    between atoms: _163  and  _165
REMARK   68  A    between atoms: _165  and  _166
REMARK   69  A    between atoms: _165  and  _168
REMARK   70  A    between atoms: _168  and  _169
REMARK   71  A    between atoms: _172  and  _174
REMARK   72  A    between atoms: _174  and  _175
REMARK   73  A    between atoms: _174  and  _177
REMARK   74  A    between atoms: _177  and  _178
REMARK   75  A    between atoms: _184  and  _186
REMARK   76  A    between atoms: _186  and  _187
REMARK   77  A    between atoms: _186  and  _189
REMARK   78  A    between atoms: _189  and  _190
REMARK   79  A    between atoms: _193  and  _195
REMARK   80  A    between atoms: _195  and  _196
REMARK   81  A    between atoms: _195  and  _198
REMARK   82  A    between atoms: _198  and  _199
REMARK   83  A    between atoms: _202  and  _204
REMARK   84  A    between atoms: _204  and  _205
REMARK   85  A    between atoms: _208  and  _210
REMARK   86  A    between atoms: _210  and  _211
REMARK   87  A    between atoms: _210  and  _213
REMARK   88  A    between atoms: _216  and  _218
REMARK   89  A    between atoms: _218  and  _219
REMARK   90  A    between atoms: _218  and  _221
REMARK   91  A    between atoms: _221  and  _222
REMARK   92  A    between atoms: _226  and  ZN_394
REMARK   93  A    between atoms: _229  and  _230
REMARK   94  A    between atoms: _229  and  _232
REMARK   95  A    between atoms: _232  and  _233
REMARK   96  A    between atoms: _233  and  _234
REMARK   97  A    between atoms: _237  and  _239
REMARK   98  A    between atoms: _239  and  _240
REMARK   99  A    between atoms: _239  and  _242
REMARK  100  A    between atoms: _242  and  _243
REMARK  101  A    between atoms: _246  and  _248
REMARK  102  A    between atoms: _248  and  _249
REMARK  103  A    between atoms: _248  and  _251
REMARK  104  A    between atoms: _251  and  _252
REMARK  105  A    between atoms: _256  and  ZN_394
REMARK  106  A    between atoms: _257  and  _259
REMARK  107  A    between atoms: _259  and  _260
REMARK  108  A    between atoms: _259  and  _262
REMARK  109  A    between atoms: _262  and  _263
REMARK  110  A    between atoms: _265  and  _267
REMARK  111  A    between atoms: _267  and  _268
REMARK  112  A    between atoms: _267  and  _270
REMARK  113  A    between atoms: _270  and  _271
REMARK  114  A    between atoms: _274  and  _276
REMARK  115  A    between atoms: _276  and  _277
REMARK  116  A    between atoms: _279  and  _281
REMARK  117  A    between atoms: _281  and  _282
REMARK  118  A    between atoms: _281  and  _284
REMARK  119  A    between atoms: _284  and  _285
REMARK  120  A    between atoms: _289  and  ZN_394
REMARK  121  A    between atoms: _290  and  _292
REMARK  122  A    between atoms: _292  and  _293
REMARK  123  A    between atoms: _296  and  _298
REMARK  124  A    between atoms: _298  and  _299
REMARK  125  A    between atoms: _298  and  _301
REMARK  126  A    between atoms: _304  and  _306
REMARK  127  A    between atoms: _306  and  _307
REMARK  128  A    between atoms: _306  and  _309
REMARK  129  A    between atoms: _309  and  _310
REMARK  130  A    between atoms: _310  and  _311
REMARK  131  A    between atoms: _313  and  _315
REMARK  132  A    between atoms: _315  and  _316
REMARK  133  A    between atoms: _315  and  _318
REMARK  134  A    between atoms: _318  and  _319
REMARK  135  A    between atoms: _326  and  _327
REMARK  136  A    between atoms: _332  and  _334
REMARK  137  A    between atoms: _334  and  _335
REMARK  138  A    between atoms: _334  and  _337
REMARK  139  A    between atoms: _337  and  _338
REMARK  140  A    between atoms: _341  and  _343
REMARK  141  A    between atoms: _343  and  _344
REMARK  142  A    between atoms: _343  and  _346
REMARK  143  A    between atoms: _346  and  _347
REMARK  144  A    between atoms: _352  and  _353
REMARK  145  A    between atoms: _355  and  _357
REMARK  146  A    between atoms: _357  and  _358
REMARK  147  A    between atoms: _357  and  _360
REMARK  148  A    between atoms: _360  and  _361
REMARK  149  A    between atoms: _361  and  _362
REMARK  150  A    between atoms: _362  and  _363
REMARK  151  A    between atoms: _363  and  _364
REMARK  152  A    between atoms: _368  and  _370
REMARK  153  A    between atoms: _370  and  _371
REMARK  154  A    between atoms: _370  and  _373
REMARK  155  A    between atoms: _373  and  _374
REMARK  156  A    between atoms: _379  and  _380
REMARK  157  A    between atoms: _382  and  _384
REMARK  158  A    between atoms: _384  and  _385
REMARK  159  A    between atoms: _384  and  _387
REMARK  160  A    between atoms: _387  and  _388
REMARK                            x       y       z     vdW  Elec       q    Type
REMARK                         _______ _______ _______ _____ _____    ______ ____
ROOT
ATOM      1  O   HOH     1       0.001  31.283   0.824  0.00  0.00    +0.000 OA
ENDROOT
TORSDOF 0
REMARK  Name = ../refined-set-2016/1rmz/1rmz_pocket.pdb
REMARK  160 active torsions:
REMARK  status: ('A' for Active; 'I' for Inactive)
REMARK    1  A    between atoms: _1  and  _3
REMARK    2  A    between atoms: _3  and  _4
REMARK    3  A    between atoms: _3  and  _6
REMARK    4  A    between atoms: _6  and  _7
REMARK    5  A    between atoms: _13  and  _15
REMARK    6  A    between atoms: _15  and  _16
REMARK    7  A    between atoms: _15  and  _18
REMARK    8  A    between atoms: _18  and  _19
REMARK    9  A    between atoms: _22  and  _24
REMARK   10  A    between atoms: _24  and  _25
REMARK   11  A    between atoms: _27  and  _29
REMARK   12  A    between atoms: _29  and  _30
REMARK   13  A    between atoms: _32  and  _34
REMARK   14  A    between atoms: _34  and  _35
REMARK   15  A    between atoms: _34  and  _37
REMARK   16  A    between atoms: _35  and  _36
REMARK   17  A    between atoms: _35  and  _41
REMARK   18  A    between atoms: _36  and  CA_395
REMARK   19  A    between atoms: _37  and  _38
REMARK   20  A    between atoms: _41  and  _43
REMARK   21  A    between atoms: _43  and  _44
REMARK   22  A    between atoms: _43  and  _46
REMARK   23  A    between atoms: _46  and  _47
REMARK   24  A    between atoms: _50  and  _52
REMARK   25  A    between atoms: _52  and  _53
REMARK   26  A    between atoms: _56  and  _58
REMARK   27  A    between atoms: _58  and  _59
REMARK   28  A    between atoms: _58  and  _61
REMARK   29  A    between atoms: _61  and  _62
REMARK   30  A    between atoms: _67  and  _69
REMARK   31  A    between atoms: _69  and  _70
REMARK   32  A    between atoms: _73  and  _75
REMARK   33  A    between atoms: _75  and  _76
REMARK   34  A    between atoms: _75  and  _78
REMARK   35  A    between atoms: _78  and  _79
REMARK   36  A    between atoms: _85  and  _87
REMARK   37  A    between atoms: _87  and  _88
REMARK   38  A    between atoms: _87  and  _90
REMARK   39  A    between atoms: _90  and  _91
REMARK   40  A    between atoms: _96  and  _98
REMARK   41  A    between atoms: _98  and  _99
REMARK   42  A    between atoms: _98  and  _101
REMARK   43  A    between atoms: _101  and  _102
REMARK   44  A    between atoms: _108  and  _110
REMARK   45  A    between atoms: _110  and  _111
REMARK   46  A    between atoms: _110  and  _113
REMARK   47  A    between atoms: _113  and  _114
REMARK   48  A    between atoms: _117  and  _119
REMARK   49  A    between atoms: _119  and  _120
REMARK   50  A    between atoms: _119  and  _122
REMARK   51  A    between atoms: _122  and  _123
REMARK   52  A    between atoms: _123  and  _124
REMARK   53  A    between atoms: _124  and  _126
REMARK   54  A    between atoms: _126  and  CA_395
REMARK   55  A    between atoms: _127  and  _129
REMARK   56  A    between atoms: _129  and  _130
REMARK   57  A    between atoms: _129  and  _132
REMARK   58  A    between atoms: _132  and  _133
REMARK   59  A    between atoms: _143  and  _145
REMARK   60  A    between atoms: _145  and  _146
REMARK   61  A    between atoms: _145  and  _148
REMARK   62  A    between atoms: _148  and  _149
REMARK   63  A    between atoms: _152  and  _154
REMARK   64  A    between atoms: _154  and  _155
REMARK   65  A    between atoms: _154  and  _157
REMARK   66  A    between atoms: _157  and  _158
REMARK   67  A    between atoms: _163  and  _165
REMARK   68  A    between atoms: _165  and  _166
REMARK   69  A    between atoms: _165  and  _168
REMARK   70  A    between atoms: _168  and  _169
REMARK   71  A    between atoms: _172  and  _174
REMARK   72  A    between atoms: _174  and  _175
REMARK   73  A    between atoms: _174  and  _177
REMARK   74  A    between atoms: _177  and  _178
REMARK   75  A    between atoms: _184  and  _186
REMARK   76  A    between atoms: _186  and  _187
REMARK   77  A    between atoms: _186  and  _189
REMARK   78  A    between atoms: _189  and  _190
REMARK   79  A    between atoms: _193  and  _195
REMARK   80  A    between atoms: _195  and  _196
REMARK   81  A    between atoms: _195  and  _198
REMARK   82  A    between atoms: _198  and  _199
REMARK   83  A    between atoms: _202  and  _204
REMARK   84  A    between atoms: _204  and  _205
REMARK   85  A    between atoms: _208  and  _210
REMARK   86  A    between atoms: _210  and  _211
REMARK   87  A    between atoms: _210  and  _213
REMARK   88  A    between atoms: _216  and  _218
REMARK   89  A    between atoms: _218  and  _219
REMARK   90  A    between atoms: _218  and  _221
REMARK   91  A    between atoms: _221  and  _222
REMARK   92  A    between atoms: _226  and  ZN_394
REMARK   93  A    between atoms: _229  and  _230
REMARK   94  A    between atoms: _229  and  _232
REMARK   95  A    between atoms: _232  and  _233
REMARK   96  A    between atoms: _233  and  _234
REMARK   97  A    between atoms: _237  and  _239
REMARK   98  A    between atoms: _239  and  _240
REMARK   99  A    between atoms: _239  and  _242
REMARK  100  A    between atoms: _242  and  _243
REMARK  101  A    between atoms: _246  and  _248
REMARK  102  A    between atoms: _248  and  _249
REMARK  103  A    between atoms: _248  and  _251
REMARK  104  A    between atoms: _251  and  _252
REMARK  105  A    between atoms: _256  and  ZN_394
REMARK  106  A    between atoms: _257  and  _259
REMARK  107  A    between atoms: _259  and  _260
REMARK  108  A    between atoms: _259  and  _262
REMARK  109  A    between atoms: _262  and  _263
REMARK  110  A    between atoms: _265  and  _267
REMARK  111  A    between atoms: _267  and  _268
REMARK  112  A    between atoms: _267  and  _270
REMARK  113  A    between atoms: _270  and  _271
REMARK  114  A    between atoms: _274  and  _276
REMARK  115  A    between atoms: _276  and  _277
REMARK  116  A    between atoms: _279  and  _281
REMARK  117  A    between atoms: _281  and  _282
REMARK  118  A    between atoms: _281  and  _284
REMARK  119  A    between atoms: _284  and  _285
REMARK  120  A    between atoms: _289  and  ZN_394
REMARK  121  A    between atoms: _290  and  _292
REMARK  122  A    between atoms: _292  and  _293
REMARK  123  A    between atoms: _296  and  _298
REMARK  124  A    between atoms: _298  and  _299
REMARK  125  A    between atoms: _298  and  _301
REMARK  126  A    between atoms: _304  and  _306
REMARK  127  A    between atoms: _306  and  _307
REMARK  128  A    between atoms: _306  and  _309
REMARK  129  A    between atoms: _309  and  _310
REMARK  130  A    between atoms: _310  and  _311
REMARK  131  A    between atoms: _313  and  _315
REMARK  132  A    between atoms: _315  and  _316
REMARK  133  A    between atoms: _315  and  _318
REMARK  134  A    between atoms: _318  and  _319
REMARK  135  A    between atoms: _326  and  _327
REMARK  136  A    between atoms: _332  and  _334
REMARK  137  A    between atoms: _334  and  _335
REMARK  138  A    between atoms: _334  and  _337
REMARK  139  A    between atoms: _337  and  _338
REMARK  140  A    between atoms: _341  and  _343
REMARK  141  A    between atoms: _343  and  _344
REMARK  142  A    between atoms: _343  and  _346
REMARK  143  A    between atoms: _346  and  _347
REMARK  144  A    between atoms: _352  and  _353
REMARK  145  A    between atoms: _355  and  _357
REMARK  146  A    between atoms: _357  and  _358
REMARK  147  A    between atoms: _357  and  _360
REMARK  148  A    between atoms: _360  and  _361
REMARK  149  A    between atoms: _361  and  _362
REMARK  150  A    between atoms: _362  and  _363
REMARK  151  A    between atoms: _363  and  _364
REMARK  152  A    between atoms: _368  and  _370
REMARK  153  A    between atoms: _370  and  _371
REMARK  154  A    between atoms: _370  and  _373
REMARK  155  A    between atoms: _373  and  _374
REMARK  156  A    between atoms: _379  and  _380
REMARK  157  A    between atoms: _382  and  _384
REMARK  158  A    between atoms: _384  and  _385
REMARK  159  A    between atoms: _384  and  _387
REMARK  160  A    between atoms: _387  and  _388
REMARK                            x       y       z     vdW  Elec       q    Type
REMARK                         _______ _______ _______ _____ _____    ______ ____
ROOT
ATOM      1  O   HOH     1       8.442  28.968   8.417  0.00  0.00    +0.000 OA
ENDROOT
TORSDOF 0
REMARK  Name = ../refined-set-2016/1rmz/1rmz_pocket.pdb
REMARK  160 active torsions:
REMARK  status: ('A' for Active; 'I' for Inactive)
REMARK    1  A    between atoms: _1  and  _3
REMARK    2  A    between atoms: _3  and  _4
REMARK    3  A    between atoms: _3  and  _6
REMARK    4  A    between atoms: _6  and  _7
REMARK    5  A    between atoms: _13  and  _15
REMARK    6  A    between atoms: _15  and  _16
REMARK    7  A    between atoms: _15  and  _18
REMARK    8  A    between atoms: _18  and  _19
REMARK    9  A    between atoms: _22  and  _24
REMARK   10  A    between atoms: _24  and  _25
REMARK   11  A    between atoms: _27  and  _29
REMARK   12  A    between atoms: _29  and  _30
REMARK   13  A    between atoms: _32  and  _34
REMARK   14  A    between atoms: _34  and  _35
REMARK   15  A    between atoms: _34  and  _37
REMARK   16  A    between atoms: _35  and  _36
REMARK   17  A    between atoms: _35  and  _41
REMARK   18  A    between atoms: _36  and  CA_395
REMARK   19  A    between atoms: _37  and  _38
REMARK   20  A    between atoms: _41  and  _43
REMARK   21  A    between atoms: _43  and  _44
REMARK   22  A    between atoms: _43  and  _46
REMARK   23  A    between atoms: _46  and  _47
REMARK   24  A    between atoms: _50  and  _52
REMARK   25  A    between atoms: _52  and  _53
REMARK   26  A    between atoms: _56  and  _58
REMARK   27  A    between atoms: _58  and  _59
REMARK   28  A    between atoms: _58  and  _61
REMARK   29  A    between atoms: _61  and  _62
REMARK   30  A    between atoms: _67  and  _69
REMARK   31  A    between atoms: _69  and  _70
REMARK   32  A    between atoms: _73  and  _75
REMARK   33  A    between atoms: _75  and  _76
REMARK   34  A    between atoms: _75  and  _78
REMARK   35  A    between atoms: _78  and  _79
REMARK   36  A    between atoms: _85  and  _87
REMARK   37  A    between atoms: _87  and  _88
REMARK   38  A    between atoms: _87  and  _90
REMARK   39  A    between atoms: _90  and  _91
REMARK   40  A    between atoms: _96  and  _98
REMARK   41  A    between atoms: _98  and  _99
REMARK   42  A    between atoms: _98  and  _101
REMARK   43  A    between atoms: _101  and  _102
REMARK   44  A    between atoms: _108  and  _110
REMARK   45  A    between atoms: _110  and  _111
REMARK   46  A    between atoms: _110  and  _113
REMARK   47  A    between atoms: _113  and  _114
REMARK   48  A    between atoms: _117  and  _119
REMARK   49  A    between atoms: _119  and  _120
REMARK   50  A    between atoms: _119  and  _122
REMARK   51  A    between atoms: _122  and  _123
REMARK   52  A    between atoms: _123  and  _124
REMARK   53  A    between atoms: _124  and  _126
REMARK   54  A    between atoms: _126  and  CA_395
REMARK   55  A    between atoms: _127  and  _129
REMARK   56  A    between atoms: _129  and  _130
REMARK   57  A    between atoms: _129  and  _132
REMARK   58  A    between atoms: _132  and  _133
REMARK   59  A    between atoms: _143  and  _145
REMARK   60  A    between atoms: _145  and  _146
REMARK   61  A    between atoms: _145  and  _148
REMARK   62  A    between atoms: _148  and  _149
REMARK   63  A    between atoms: _152  and  _154
REMARK   64  A    between atoms: _154  and  _155
REMARK   65  A    between atoms: _154  and  _157
REMARK   66  A    between atoms: _157  and  _158
REMARK   67  A    between atoms: _163  and  _165
REMARK   68  A    between atoms: _165  and  _166
REMARK   69  A    between atoms: _165  and  _168
REMARK   70  A    between atoms: _168  and  _169
REMARK   71  A    between atoms: _172  and  _174
REMARK   72  A    between atoms: _174  and  _175
REMARK   73  A    between atoms: _174  and  _177
REMARK   74  A    between atoms: _177  and  _178
REMARK   75  A    between atoms: _184  and  _186
REMARK   76  A    between atoms: _186  and  _187
REMARK   77  A    between atoms: _186  and  _189
REMARK   78  A    between atoms: _189  and  _190
REMARK   79  A    between atoms: _193  and  _195
REMARK   80  A    between atoms: _195  and  _196
REMARK   81  A    between atoms: _195  and  _198
REMARK   82  A    between atoms: _198  and  _199
REMARK   83  A    between atoms: _202  and  _204
REMARK   84  A    between atoms: _204  and  _205
REMARK   85  A    between atoms: _208  and  _210
REMARK   86  A    between atoms: _210  and  _211
REMARK   87  A    between atoms: _210  and  _213
REMARK   88  A    between atoms: _216  and  _218
REMARK   89  A    between atoms: _218  and  _219
REMARK   90  A    between atoms: _218  and  _221
REMARK   91  A    between atoms: _221  and  _222
REMARK   92  A    between atoms: _226  and  ZN_394
REMARK   93  A    between atoms: _229  and  _230
REMARK   94  A    between atoms: _229  and  _232
REMARK   95  A    between atoms: _232  and  _233
REMARK   96  A    between atoms: _233  and  _234
REMARK   97  A    between atoms: _237  and  _239
REMARK   98  A    between atoms: _239  and  _240
REMARK   99  A    between atoms: _239  and  _242
REMARK  100  A    between atoms: _242  and  _243
REMARK  101  A    between atoms: _246  and  _248
REMARK  102  A    between atoms: _248  and  _249
REMARK  103  A    between atoms: _248  and  _251
REMARK  104  A    between atoms: _251  and  _252
REMARK  105  A    between atoms: _256  and  ZN_394
REMARK  106  A    between atoms: _257  and  _259
REMARK  107  A    between atoms: _259  and  _260
REMARK  108  A    between atoms: _259  and  _262
REMARK  109  A    between atoms: _262  and  _263
REMARK  110  A    between atoms: _265  and  _267
REMARK  111  A    between atoms: _267  and  _268
REMARK  112  A    between atoms: _267  and  _270
REMARK  113  A    between atoms: _270  and  _271
REMARK  114  A    between atoms: _274  and  _276
REMARK  115  A    between atoms: _276  and  _277
REMARK  116  A    between atoms: _279  and  _281
REMARK  117  A    between atoms: _281  and  _282
REMARK  118  A    between atoms: _281  and  _284
REMARK  119  A    between atoms: _284  and  _285
REMARK  120  A    between atoms: _289  and  ZN_394
REMARK  121  A    between atoms: _290  and  _292
REMARK  122  A    between atoms: _292  and  _293
REMARK  123  A    between atoms: _296  and  _298
REMARK  124  A    between atoms: _298  and  _299
REMARK  125  A    between atoms: _298  and  _301
REMARK  126  A    between atoms: _304  and  _306
REMARK  127  A    between atoms: _306  and  _307
REMARK  128  A    between atoms: _306  and  _309
REMARK  129  A    between atoms: _309  and  _310
REMARK  130  A    between atoms: _310  and  _311
REMARK  131  A    between atoms: _313  and  _315
REMARK  132  A    between atoms: _315  and  _316
REMARK  133  A    between atoms: _315  and  _318
REMARK  134  A    between atoms: _318  and  _319
REMARK  135  A    between atoms: _326  and  _327
REMARK  136  A    between atoms: _332  and  _334
REMARK  137  A    between atoms: _334  and  _335
REMARK  138  A    between atoms: _334  and  _337
REMARK  139  A    between atoms: _337  and  _338
REMARK  140  A    between atoms: _341  and  _343
REMARK  141  A    between atoms: _343  and  _344
REMARK  142  A    between atoms: _343  and  _346
REMARK  143  A    between atoms: _346  and  _347
REMARK  144  A    between atoms: _352  and  _353
REMARK  145  A    between atoms: _355  and  _357
REMARK  146  A    between atoms: _357  and  _358
REMARK  147  A    between atoms: _357  and  _360
REMARK  148  A    between atoms: _360  and  _361
REMARK  149  A    between atoms: _361  and  _362
REMARK  150  A    between atoms: _362  and  _363
REMARK  151  A    between atoms: _363  and  _364
REMARK  152  A    between atoms: _368  and  _370
REMARK  153  A    between atoms: _370  and  _371
REMARK  154  A    between atoms: _370  and  _373
REMARK  155  A    between atoms: _373  and  _374
REMARK  156  A    between atoms: _379  and  _380
REMARK  157  A    between atoms: _382  and  _384
REMARK  158  A    between atoms: _384  and  _385
REMARK  159  A    between atoms: _384  and  _387
REMARK  160  A    between atoms: _387  and  _388
REMARK                            x       y       z     vdW  Elec       q    Type
REMARK                         _______ _______ _______ _____ _____    ______ ____
ROOT
ATOM      1  O   HOH     1      12.403  22.589  -4.467  0.00  0.00    +0.000 OA
ENDROOT
TORSDOF 0
REMARK  Name = ../refined-set-2016/1rmz/1rmz_pocket.pdb
REMARK  160 active torsions:
REMARK  status: ('A' for Active; 'I' for Inactive)
REMARK    1  A    between atoms: _1  and  _3
REMARK    2  A    between atoms: _3  and  _4
REMARK    3  A    between atoms: _3  and  _6
REMARK    4  A    between atoms: _6  and  _7
REMARK    5  A    between atoms: _13  and  _15
REMARK    6  A    between atoms: _15  and  _16
REMARK    7  A    between atoms: _15  and  _18
REMARK    8  A    between atoms: _18  and  _19
REMARK    9  A    between atoms: _22  and  _24
REMARK   10  A    between atoms: _24  and  _25
REMARK   11  A    between atoms: _27  and  _29
REMARK   12  A    between atoms: _29  and  _30
REMARK   13  A    between atoms: _32  and  _34
REMARK   14  A    between atoms: _34  and  _35
REMARK   15  A    between atoms: _34  and  _37
REMARK   16  A    between atoms: _35  and  _36
REMARK   17  A    between atoms: _35  and  _41
REMARK   18  A    between atoms: _36  and  CA_395
REMARK   19  A    between atoms: _37  and  _38
REMARK   20  A    between atoms: _41  and  _43
REMARK   21  A    between atoms: _43  and  _44
REMARK   22  A    between atoms: _43  and  _46
REMARK   23  A    between atoms: _46  and  _47
REMARK   24  A    between atoms: _50  and  _52
REMARK   25  A    between atoms: _52  and  _53
REMARK   26  A    between atoms: _56  and  _58
REMARK   27  A    between atoms: _58  and  _59
REMARK   28  A    between atoms: _58  and  _61
REMARK   29  A    between atoms: _61  and  _62
REMARK   30  A    between atoms: _67  and  _69
REMARK   31  A    between atoms: _69  and  _70
REMARK   32  A    between atoms: _73  and  _75
REMARK   33  A    between atoms: _75  and  _76
REMARK   34  A    between atoms: _75  and  _78
REMARK   35  A    between atoms: _78  and  _79
REMARK   36  A    between atoms: _85  and  _87
REMARK   37  A    between atoms: _87  and  _88
REMARK   38  A    between atoms: _87  and  _90
REMARK   39  A    between atoms: _90  and  _91
REMARK   40  A    between atoms: _96  and  _98
REMARK   41  A    between atoms: _98  and  _99
REMARK   42  A    between atoms: _98  and  _101
REMARK   43  A    between atoms: _101  and  _102
REMARK   44  A    between atoms: _108  and  _110
REMARK   45  A    between atoms: _110  and  _111
REMARK   46  A    between atoms: _110  and  _113
REMARK   47  A    between atoms: _113  and  _114
REMARK   48  A    between atoms: _117  and  _119
REMARK   49  A    between atoms: _119  and  _120
REMARK   50  A    between atoms: _119  and  _122
REMARK   51  A    between atoms: _122  and  _123
REMARK   52  A    between atoms: _123  and  _124
REMARK   53  A    between atoms: _124  and  _126
REMARK   54  A    between atoms: _126  and  CA_395
REMARK   55  A    between atoms: _127  and  _129
REMARK   56  A    between atoms: _129  and  _130
REMARK   57  A    between atoms: _129  and  _132
REMARK   58  A    between atoms: _132  and  _133
REMARK   59  A    between atoms: _143  and  _145
REMARK   60  A    between atoms: _145  and  _146
REMARK   61  A    between atoms: _145  and  _148
REMARK   62  A    between atoms: _148  and  _149
REMARK   63  A    between atoms: _152  and  _154
REMARK   64  A    between atoms: _154  and  _155
REMARK   65  A    between atoms: _154  and  _157
REMARK   66  A    between atoms: _157  and  _158
REMARK   67  A    between atoms: _163  and  _165
REMARK   68  A    between atoms: _165  and  _166
REMARK   69  A    between atoms: _165  and  _168
REMARK   70  A    between atoms: _168  and  _169
REMARK   71  A    between atoms: _172  and  _174
REMARK   72  A    between atoms: _174  and  _175
REMARK   73  A    between atoms: _174  and  _177
REMARK   74  A    between atoms: _177  and  _178
REMARK   75  A    between atoms: _184  and  _186
REMARK   76  A    between atoms: _186  and  _187
REMARK   77  A    between atoms: _186  and  _189
REMARK   78  A    between atoms: _189  and  _190
REMARK   79  A    between atoms: _193  and  _195
REMARK   80  A    between atoms: _195  and  _196
REMARK   81  A    between atoms: _195  and  _198
REMARK   82  A    between atoms: _198  and  _199
REMARK   83  A    between atoms: _202  and  _204
REMARK   84  A    between atoms: _204  and  _205
REMARK   85  A    between atoms: _208  and  _210
REMARK   86  A    between atoms: _210  and  _211
REMARK   87  A    between atoms: _210  and  _213
REMARK   88  A    between atoms: _216  and  _218
REMARK   89  A    between atoms: _218  and  _219
REMARK   90  A    between atoms: _218  and  _221
REMARK   91  A    between atoms: _221  and  _222
REMARK   92  A    between atoms: _226  and  ZN_394
REMARK   93  A    between atoms: _229  and  _230
REMARK   94  A    between atoms: _229  and  _232
REMARK   95  A    between atoms: _232  and  _233
REMARK   96  A    between atoms: _233  and  _234
REMARK   97  A    between atoms: _237  and  _239
REMARK   98  A    between atoms: _239  and  _240
REMARK   99  A    between atoms: _239  and  _242
REMARK  100  A    between atoms: _242  and  _243
REMARK  101  A    between atoms: _246  and  _248
REMARK  102  A    between atoms: _248  and  _249
REMARK  103  A    between atoms: _248  and  _251
REMARK  104  A    between atoms: _251  and  _252
REMARK  105  A    between atoms: _256  and  ZN_394
REMARK  106  A    between atoms: _257  and  _259
REMARK  107  A    between atoms: _259  and  _260
REMARK  108  A    between atoms: _259  and  _262
REMARK  109  A    between atoms: _262  and  _263
REMARK  110  A    between atoms: _265  and  _267
REMARK  111  A    between atoms: _267  and  _268
REMARK  112  A    between atoms: _267  and  _270
REMARK  113  A    between atoms: _270  and  _271
REMARK  114  A    between atoms: _274  and  _276
REMARK  115  A    between atoms: _276  and  _277
REMARK  116  A    between atoms: _279  and  _281
REMARK  117  A    between atoms: _281  and  _282
REMARK  118  A    between atoms: _281  and  _284
REMARK  119  A    between atoms: _284  and  _285
REMARK  120  A    between atoms: _289  and  ZN_394
REMARK  121  A    between atoms: _290  and  _292
REMARK  122  A    between atoms: _292  and  _293
REMARK  123  A    between atoms: _296  and  _298
REMARK  124  A    between atoms: _298  and  _299
REMARK  125  A    between atoms: _298  and  _301
REMARK  126  A    between atoms: _304  and  _306
REMARK  127  A    between atoms: _306  and  _307
REMARK  128  A    between atoms: _306  and  _309
REMARK  129  A    between atoms: _309  and  _310
REMARK  130  A    between atoms: _310  and  _311
REMARK  131  A    between atoms: _313  and  _315
REMARK  132  A    between atoms: _315  and  _316
REMARK  133  A    between atoms: _315  and  _318
REMARK  134  A    between atoms: _318  and  _319
REMARK  135  A    between atoms: _326  and  _327
REMARK  136  A    between atoms: _332  and  _334
REMARK  137  A    between atoms: _334  and  _335
REMARK  138  A    between atoms: _334  and  _337
REMARK  139  A    between atoms: _337  and  _338
REMARK  140  A    between atoms: _341  and  _343
REMARK  141  A    between atoms: _343  and  _344
REMARK  142  A    between atoms: _343  and  _346
REMARK  143  A    between atoms: _346  and  _347
REMARK  144  A    between atoms: _352  and  _353
REMARK  145  A    between atoms: _355  and  _357
REMARK  146  A    between atoms: _357  and  _358
REMARK  147  A    between atoms: _357  and  _360
REMARK  148  A    between atoms: _360  and  _361
REMARK  149  A    between atoms: _361  and  _362
REMARK  150  A    between atoms: _362  and  _363
REMARK  151  A    between atoms: _363  and  _364
REMARK  152  A    between atoms: _368  and  _370
REMARK  153  A    between atoms: _370  and  _371
REMARK  154  A    between atoms: _370  and  _373
REMARK  155  A    between atoms: _373  and  _374
REMARK  156  A    between atoms: _379  and  _380
REMARK  157  A    between atoms: _382  and  _384
REMARK  158  A    between atoms: _384  and  _385
REMARK  159  A    between atoms: _384  and  _387
REMARK  160  A    between atoms: _387  and  _388
REMARK                            x       y       z     vdW  Elec       q    Type
REMARK                         _______ _______ _______ _____ _____    ______ ____
ROOT
ATOM      1  O   HOH     1       7.766  28.212  10.819  0.00  0.00    +0.000 OA
ENDROOT
TORSDOF 0
REMARK  Name = ../refined-set-2016/1rmz/1rmz_pocket.pdb
REMARK  160 active torsions:
REMARK  status: ('A' for Active; 'I' for Inactive)
REMARK    1  A    between atoms: _1  and  _3
REMARK    2  A    between atoms: _3  and  _4
REMARK    3  A    between atoms: _3  and  _6
REMARK    4  A    between atoms: _6  and  _7
REMARK    5  A    between atoms: _13  and  _15
REMARK    6  A    between atoms: _15  and  _16
REMARK    7  A    between atoms: _15  and  _18
REMARK    8  A    between atoms: _18  and  _19
REMARK    9  A    between atoms: _22  and  _24
REMARK   10  A    between atoms: _24  and  _25
REMARK   11  A    between atoms: _27  and  _29
REMARK   12  A    between atoms: _29  and  _30
REMARK   13  A    between atoms: _32  and  _34
REMARK   14  A    between atoms: _34  and  _35
REMARK   15  A    between atoms: _34  and  _37
REMARK   16  A    between atoms: _35  and  _36
REMARK   17  A    between atoms: _35  and  _41
REMARK   18  A    between atoms: _36  and  CA_395
REMARK   19  A    between atoms: _37  and  _38
REMARK   20  A    between atoms: _41  and  _43
REMARK   21  A    between atoms: _43  and  _44
REMARK   22  A    between atoms: _43  and  _46
REMARK   23  A    between atoms: _46  and  _47
REMARK   24  A    between atoms: _50  and  _52
REMARK   25  A    between atoms: _52  and  _53
REMARK   26  A    between atoms: _56  and  _58
REMARK   27  A    between atoms: _58  and  _59
REMARK   28  A    between atoms: _58  and  _61
REMARK   29  A    between atoms: _61  and  _62
REMARK   30  A    between atoms: _67  and  _69
REMARK   31  A    between atoms: _69  and  _70
REMARK   32  A    between atoms: _73  and  _75
REMARK   33  A    between atoms: _75  and  _76
REMARK   34  A    between atoms: _75  and  _78
REMARK   35  A    between atoms: _78  and  _79
REMARK   36  A    between atoms: _85  and  _87
REMARK   37  A    between atoms: _87  and  _88
REMARK   38  A    between atoms: _87  and  _90
REMARK   39  A    between atoms: _90  and  _91
REMARK   40  A    between atoms: _96  and  _98
REMARK   41  A    between atoms: _98  and  _99
REMARK   42  A    between atoms: _98  and  _101
REMARK   43  A    between atoms: _101  and  _102
REMARK   44  A    between atoms: _108  and  _110
REMARK   45  A    between atoms: _110  and  _111
REMARK   46  A    between atoms: _110  and  _113
REMARK   47  A    between atoms: _113  and  _114
REMARK   48  A    between atoms: _117  and  _119
REMARK   49  A    between atoms: _119  and  _120
REMARK   50  A    between atoms: _119  and  _122
REMARK   51  A    between atoms: _122  and  _123
REMARK   52  A    between atoms: _123  and  _124
REMARK   53  A    between atoms: _124  and  _126
REMARK   54  A    between atoms: _126  and  CA_395
REMARK   55  A    between atoms: _127  and  _129
REMARK   56  A    between atoms: _129  and  _130
REMARK   57  A    between atoms: _129  and  _132
REMARK   58  A    between atoms: _132  and  _133
REMARK   59  A    between atoms: _143  and  _145
REMARK   60  A    between atoms: _145  and  _146
REMARK   61  A    between atoms: _145  and  _148
REMARK   62  A    between atoms: _148  and  _149
REMARK   63  A    between atoms: _152  and  _154
REMARK   64  A    between atoms: _154  and  _155
REMARK   65  A    between atoms: _154  and  _157
REMARK   66  A    between atoms: _157  and  _158
REMARK   67  A    between atoms: _163  and  _165
REMARK   68  A    between atoms: _165  and  _166
REMARK   69  A    between atoms: _165  and  _168
REMARK   70  A    between atoms: _168  and  _169
REMARK   71  A    between atoms: _172  and  _174
REMARK   72  A    between atoms: _174  and  _175
REMARK   73  A    between atoms: _174  and  _177
REMARK   74  A    between atoms: _177  and  _178
REMARK   75  A    between atoms: _184  and  _186
REMARK   76  A    between atoms: _186  and  _187
REMARK   77  A    between atoms: _186  and  _189
REMARK   78  A    between atoms: _189  and  _190
REMARK   79  A    between atoms: _193  and  _195
REMARK   80  A    between atoms: _195  and  _196
REMARK   81  A    between atoms: _195  and  _198
REMARK   82  A    between atoms: _198  and  _199
REMARK   83  A    between atoms: _202  and  _204
REMARK   84  A    between atoms: _204  and  _205
REMARK   85  A    between atoms: _208  and  _210
REMARK   86  A    between atoms: _210  and  _211
REMARK   87  A    between atoms: _210  and  _213
REMARK   88  A    between atoms: _216  and  _218
REMARK   89  A    between atoms: _218  and  _219
REMARK   90  A    between atoms: _218  and  _221
REMARK   91  A    between atoms: _221  and  _222
REMARK   92  A    between atoms: _226  and  ZN_394
REMARK   93  A    between atoms: _229  and  _230
REMARK   94  A    between atoms: _229  and  _232
REMARK   95  A    between atoms: _232  and  _233
REMARK   96  A    between atoms: _233  and  _234
REMARK   97  A    between atoms: _237  and  _239
REMARK   98  A    between atoms: _239  and  _240
REMARK   99  A    between atoms: _239  and  _242
REMARK  100  A    between atoms: _242  and  _243
REMARK  101  A    between atoms: _246  and  _248
REMARK  102  A    between atoms: _248  and  _249
REMARK  103  A    between atoms: _248  and  _251
REMARK  104  A    between atoms: _251  and  _252
REMARK  105  A    between atoms: _256  and  ZN_394
REMARK  106  A    between atoms: _257  and  _259
REMARK  107  A    between atoms: _259  and  _260
REMARK  108  A    between atoms: _259  and  _262
REMARK  109  A    between atoms: _262  and  _263
REMARK  110  A    between atoms: _265  and  _267
REMARK  111  A    between atoms: _267  and  _268
REMARK  112  A    between atoms: _267  and  _270
REMARK  113  A    between atoms: _270  and  _271
REMARK  114  A    between atoms: _274  and  _276
REMARK  115  A    between atoms: _276  and  _277
REMARK  116  A    between atoms: _279  and  _281
REMARK  117  A    between atoms: _281  and  _282
REMARK  118  A    between atoms: _281  and  _284
REMARK  119  A    between atoms: _284  and  _285
REMARK  120  A    between atoms: _289  and  ZN_394
REMARK  121  A    between atoms: _290  and  _292
REMARK  122  A    between atoms: _292  and  _293
REMARK  123  A    between atoms: _296  and  _298
REMARK  124  A    between atoms: _298  and  _299
REMARK  125  A    between atoms: _298  and  _301
REMARK  126  A    between atoms: _304  and  _306
REMARK  127  A    between atoms: _306  and  _307
REMARK  128  A    between atoms: _306  and  _309
REMARK  129  A    between atoms: _309  and  _310
REMARK  130  A    between atoms: _310  and  _311
REMARK  131  A    between atoms: _313  and  _315
REMARK  132  A    between atoms: _315  and  _316
REMARK  133  A    between atoms: _315  and  _318
REMARK  134  A    between atoms: _318  and  _319
REMARK  135  A    between atoms: _326  and  _327
REMARK  136  A    between atoms: _332  and  _334
REMARK  137  A    between atoms: _334  and  _335
REMARK  138  A    between atoms: _334  and  _337
REMARK  139  A    between atoms: _337  and  _338
REMARK  140  A    between atoms: _341  and  _343
REMARK  141  A    between atoms: _343  and  _344
REMARK  142  A    between atoms: _343  and  _346
REMARK  143  A    between atoms: _346  and  _347
REMARK  144  A    between atoms: _352  and  _353
REMARK  145  A    between atoms: _355  and  _357
REMARK  146  A    between atoms: _357  and  _358
REMARK  147  A    between atoms: _357  and  _360
REMARK  148  A    between atoms: _360  and  _361
REMARK  149  A    between atoms: _361  and  _362
REMARK  150  A    between atoms: _362  and  _363
REMARK  151  A    between atoms: _363  and  _364
REMARK  152  A    between atoms: _368  and  _370
REMARK  153  A    between atoms: _370  and  _371
REMARK  154  A    between atoms: _370  and  _373
REMARK  155  A    between atoms: _373  and  _374
REMARK  156  A    between atoms: _379  and  _380
REMARK  157  A    between atoms: _382  and  _384
REMARK  158  A    between atoms: _384  and  _385
REMARK  159  A    between atoms: _384  and  _387
REMARK  160  A    between atoms: _387  and  _388
REMARK                            x       y       z     vdW  Elec       q    Type
REMARK                         _______ _______ _______ _____ _____    ______ ____
ROOT
ATOM      1  O   HOH     1      10.113  25.293  -2.268  0.00  0.00    +0.000 OA
ENDROOT
TORSDOF 0
REMARK  Name = ../refined-set-2016/1rmz/1rmz_pocket.pdb
REMARK  160 active torsions:
REMARK  status: ('A' for Active; 'I' for Inactive)
REMARK    1  A    between atoms: _1  and  _3
REMARK    2  A    between atoms: _3  and  _4
REMARK    3  A    between atoms: _3  and  _6
REMARK    4  A    between atoms: _6  and  _7
REMARK    5  A    between atoms: _13  and  _15
REMARK    6  A    between atoms: _15  and  _16
REMARK    7  A    between atoms: _15  and  _18
REMARK    8  A    between atoms: _18  and  _19
REMARK    9  A    between atoms: _22  and  _24
REMARK   10  A    between atoms: _24  and  _25
REMARK   11  A    between atoms: _27  and  _29
REMARK   12  A    between atoms: _29  and  _30
REMARK   13  A    between atoms: _32  and  _34
REMARK   14  A    between atoms: _34  and  _35
REMARK   15  A    between atoms: _34  and  _37
REMARK   16  A    between atoms: _35  and  _36
REMARK   17  A    between atoms: _35  and  _41
REMARK   18  A    between atoms: _36  and  CA_395
REMARK   19  A    between atoms: _37  and  _38
REMARK   20  A    between atoms: _41  and  _43
REMARK   21  A    between atoms: _43  and  _44
REMARK   22  A    between atoms: _43  and  _46
REMARK   23  A    between atoms: _46  and  _47
REMARK   24  A    between atoms: _50  and  _52
REMARK   25  A    between atoms: _52  and  _53
REMARK   26  A    between atoms: _56  and  _58
REMARK   27  A    between atoms: _58  and  _59
REMARK   28  A    between atoms: _58  and  _61
REMARK   29  A    between atoms: _61  and  _62
REMARK   30  A    between atoms: _67  and  _69
REMARK   31  A    between atoms: _69  and  _70
REMARK   32  A    between atoms: _73  and  _75
REMARK   33  A    between atoms: _75  and  _76
REMARK   34  A    between atoms: _75  and  _78
REMARK   35  A    between atoms: _78  and  _79
REMARK   36  A    between atoms: _85  and  _87
REMARK   37  A    between atoms: _87  and  _88
REMARK   38  A    between atoms: _87  and  _90
REMARK   39  A    between atoms: _90  and  _91
REMARK   40  A    between atoms: _96  and  _98
REMARK   41  A    between atoms: _98  and  _99
REMARK   42  A    between atoms: _98  and  _101
REMARK   43  A    between atoms: _101  and  _102
REMARK   44  A    between atoms: _108  and  _110
REMARK   45  A    between atoms: _110  and  _111
REMARK   46  A    between atoms: _110  and  _113
REMARK   47  A    between atoms: _113  and  _114
REMARK   48  A    between atoms: _117  and  _119
REMARK   49  A    between atoms: _119  and  _120
REMARK   50  A    between atoms: _119  and  _122
REMARK   51  A    between atoms: _122  and  _123
REMARK   52  A    between atoms: _123  and  _124
REMARK   53  A    between atoms: _124  and  _126
REMARK   54  A    between atoms: _126  and  CA_395
REMARK   55  A    between atoms: _127  and  _129
REMARK   56  A    between atoms: _129  and  _130
REMARK   57  A    between atoms: _129  and  _132
REMARK   58  A    between atoms: _132  and  _133
REMARK   59  A    between atoms: _143  and  _145
REMARK   60  A    between atoms: _145  and  _146
REMARK   61  A    between atoms: _145  and  _148
REMARK   62  A    between atoms: _148  and  _149
REMARK   63  A    between atoms: _152  and  _154
REMARK   64  A    between atoms: _154  and  _155
REMARK   65  A    between atoms: _154  and  _157
REMARK   66  A    between atoms: _157  and  _158
REMARK   67  A    between atoms: _163  and  _165
REMARK   68  A    between atoms: _165  and  _166
REMARK   69  A    between atoms: _165  and  _168
REMARK   70  A    between atoms: _168  and  _169
REMARK   71  A    between atoms: _172  and  _174
REMARK   72  A    between atoms: _174  and  _175
REMARK   73  A    between atoms: _174  and  _177
REMARK   74  A    between atoms: _177  and  _178
REMARK   75  A    between atoms: _184  and  _186
REMARK   76  A    between atoms: _186  and  _187
REMARK   77  A    between atoms: _186  and  _189
REMARK   78  A    between atoms: _189  and  _190
REMARK   79  A    between atoms: _193  and  _195
REMARK   80  A    between atoms: _195  and  _196
REMARK   81  A    between atoms: _195  and  _198
REMARK   82  A    between atoms: _198  and  _199
REMARK   83  A    between atoms: _202  and  _204
REMARK   84  A    between atoms: _204  and  _205
REMARK   85  A    between atoms: _208  and  _210
REMARK   86  A    between atoms: _210  and  _211
REMARK   87  A    between atoms: _210  and  _213
REMARK   88  A    between atoms: _216  and  _218
REMARK   89  A    between atoms: _218  and  _219
REMARK   90  A    between atoms: _218  and  _221
REMARK   91  A    between atoms: _221  and  _222
REMARK   92  A    between atoms: _226  and  ZN_394
REMARK   93  A    between atoms: _229  and  _230
REMARK   94  A    between atoms: _229  and  _232
REMARK   95  A    between atoms: _232  and  _233
REMARK   96  A    between atoms: _233  and  _234
REMARK   97  A    between atoms: _237  and  _239
REMARK   98  A    between atoms: _239  and  _240
REMARK   99  A    between atoms: _239  and  _242
REMARK  100  A    between atoms: _242  and  _243
REMARK  101  A    between atoms: _246  and  _248
REMARK  102  A    between atoms: _248  and  _249
REMARK  103  A    between atoms: _248  and  _251
REMARK  104  A    between atoms: _251  and  _252
REMARK  105  A    between atoms: _256  and  ZN_394
REMARK  106  A    between atoms: _257  and  _259
REMARK  107  A    between atoms: _259  and  _260
REMARK  108  A    between atoms: _259  and  _262
REMARK  109  A    between atoms: _262  and  _263
REMARK  110  A    between atoms: _265  and  _267
REMARK  111  A    between atoms: _267  and  _268
REMARK  112  A    between atoms: _267  and  _270
REMARK  113  A    between atoms: _270  and  _271
REMARK  114  A    between atoms: _274  and  _276
REMARK  115  A    between atoms: _276  and  _277
REMARK  116  A    between atoms: _279  and  _281
REMARK  117  A    between atoms: _281  and  _282
REMARK  118  A    between atoms: _281  and  _284
REMARK  119  A    between atoms: _284  and  _285
REMARK  120  A    between atoms: _289  and  ZN_394
REMARK  121  A    between atoms: _290  and  _292
REMARK  122  A    between atoms: _292  and  _293
REMARK  123  A    between atoms: _296  and  _298
REMARK  124  A    between atoms: _298  and  _299
REMARK  125  A    between atoms: _298  and  _301
REMARK  126  A    between atoms: _304  and  _306
REMARK  127  A    between atoms: _306  and  _307
REMARK  128  A    between atoms: _306  and  _309
REMARK  129  A    between atoms: _309  and  _310
REMARK  130  A    between atoms: _310  and  _311
REMARK  131  A    between atoms: _313  and  _315
REMARK  132  A    between atoms: _315  and  _316
REMARK  133  A    between atoms: _315  and  _318
REMARK  134  A    between atoms: _318  and  _319
REMARK  135  A    between atoms: _326  and  _327
REMARK  136  A    between atoms: _332  and  _334
REMARK  137  A    between atoms: _334  and  _335
REMARK  138  A    between atoms: _334  and  _337
REMARK  139  A    between atoms: _337  and  _338
REMARK  140  A    between atoms: _341  and  _343
REMARK  141  A    between atoms: _343  and  _344
REMARK  142  A    between atoms: _343  and  _346
REMARK  143  A    between atoms: _346  and  _347
REMARK  144  A    between atoms: _352  and  _353
REMARK  145  A    between atoms: _355  and  _357
REMARK  146  A    between atoms: _357  and  _358
REMARK  147  A    between atoms: _357  and  _360
REMARK  148  A    between atoms: _360  and  _361
REMARK  149  A    between atoms: _361  and  _362
REMARK  150  A    between atoms: _362  and  _363
REMARK  151  A    between atoms: _363  and  _364
REMARK  152  A    between atoms: _368  and  _370
REMARK  153  A    between atoms: _370  and  _371
REMARK  154  A    between atoms: _370  and  _373
REMARK  155  A    between atoms: _373  and  _374
REMARK  156  A    between atoms: _379  and  _380
REMARK  157  A    between atoms: _382  and  _384
REMARK  158  A    between atoms: _384  and  _385
REMARK  159  A    between atoms: _384  and  _387
REMARK  160  A    between atoms: _387  and  _388
REMARK                            x       y       z     vdW  Elec       q    Type
REMARK                         _______ _______ _______ _____ _____    ______ ____
ROOT
ATOM      1  O   HOH     1       0.524  29.301  -3.056  0.00  0.00    +0.000 OA
ENDROOT
TORSDOF 0
REMARK  Name = ../refined-set-2016/1rmz/1rmz_pocket.pdb
REMARK  160 active torsions:
REMARK  status: ('A' for Active; 'I' for Inactive)
REMARK    1  A    between atoms: _1  and  _3
REMARK    2  A    between atoms: _3  and  _4
REMARK    3  A    between atoms: _3  and  _6
REMARK    4  A    between atoms: _6  and  _7
REMARK    5  A    between atoms: _13  and  _15
REMARK    6  A    between atoms: _15  and  _16
REMARK    7  A    between atoms: _15  and  _18
REMARK    8  A    between atoms: _18  and  _19
REMARK    9  A    between atoms: _22  and  _24
REMARK   10  A    between atoms: _24  and  _25
REMARK   11  A    between atoms: _27  and  _29
REMARK   12  A    between atoms: _29  and  _30
REMARK   13  A    between atoms: _32  and  _34
REMARK   14  A    between atoms: _34  and  _35
REMARK   15  A    between atoms: _34  and  _37
REMARK   16  A    between atoms: _35  and  _36
REMARK   17  A    between atoms: _35  and  _41
REMARK   18  A    between atoms: _36  and  CA_395
REMARK   19  A    between atoms: _37  and  _38
REMARK   20  A    between atoms: _41  and  _43
REMARK   21  A    between atoms: _43  and  _44
REMARK   22  A    between atoms: _43  and  _46
REMARK   23  A    between atoms: _46  and  _47
REMARK   24  A    between atoms: _50  and  _52
REMARK   25  A    between atoms: _52  and  _53
REMARK   26  A    between atoms: _56  and  _58
REMARK   27  A    between atoms: _58  and  _59
REMARK   28  A    between atoms: _58  and  _61
REMARK   29  A    between atoms: _61  and  _62
REMARK   30  A    between atoms: _67  and  _69
REMARK   31  A    between atoms: _69  and  _70
REMARK   32  A    between atoms: _73  and  _75
REMARK   33  A    between atoms: _75  and  _76
REMARK   34  A    between atoms: _75  and  _78
REMARK   35  A    between atoms: _78  and  _79
REMARK   36  A    between atoms: _85  and  _87
REMARK   37  A    between atoms: _87  and  _88
REMARK   38  A    between atoms: _87  and  _90
REMARK   39  A    between atoms: _90  and  _91
REMARK   40  A    between atoms: _96  and  _98
REMARK   41  A    between atoms: _98  and  _99
REMARK   42  A    between atoms: _98  and  _101
REMARK   43  A    between atoms: _101  and  _102
REMARK   44  A    between atoms: _108  and  _110
REMARK   45  A    between atoms: _110  and  _111
REMARK   46  A    between atoms: _110  and  _113
REMARK   47  A    between atoms: _113  and  _114
REMARK   48  A    between atoms: _117  and  _119
REMARK   49  A    between atoms: _119  and  _120
REMARK   50  A    between atoms: _119  and  _122
REMARK   51  A    between atoms: _122  and  _123
REMARK   52  A    between atoms: _123  and  _124
REMARK   53  A    between atoms: _124  and  _126
REMARK   54  A    between atoms: _126  and  CA_395
REMARK   55  A    between atoms: _127  and  _129
REMARK   56  A    between atoms: _129  and  _130
REMARK   57  A    between atoms: _129  and  _132
REMARK   58  A    between atoms: _132  and  _133
REMARK   59  A    between atoms: _143  and  _145
REMARK   60  A    between atoms: _145  and  _146
REMARK   61  A    between atoms: _145  and  _148
REMARK   62  A    between atoms: _148  and  _149
REMARK   63  A    between atoms: _152  and  _154
REMARK   64  A    between atoms: _154  and  _155
REMARK   65  A    between atoms: _154  and  _157
REMARK   66  A    between atoms: _157  and  _158
REMARK   67  A    between atoms: _163  and  _165
REMARK   68  A    between atoms: _165  and  _166
REMARK   69  A    between atoms: _165  and  _168
REMARK   70  A    between atoms: _168  and  _169
REMARK   71  A    between atoms: _172  and  _174
REMARK   72  A    between atoms: _174  and  _175
REMARK   73  A    between atoms: _174  and  _177
REMARK   74  A    between atoms: _177  and  _178
REMARK   75  A    between atoms: _184  and  _186
REMARK   76  A    between atoms: _186  and  _187
REMARK   77  A    between atoms: _186  and  _189
REMARK   78  A    between atoms: _189  and  _190
REMARK   79  A    between atoms: _193  and  _195
REMARK   80  A    between atoms: _195  and  _196
REMARK   81  A    between atoms: _195  and  _198
REMARK   82  A    between atoms: _198  and  _199
REMARK   83  A    between atoms: _202  and  _204
REMARK   84  A    between atoms: _204  and  _205
REMARK   85  A    between atoms: _208  and  _210
REMARK   86  A    between atoms: _210  and  _211
REMARK   87  A    between atoms: _210  and  _213
REMARK   88  A    between atoms: _216  and  _218
REMARK   89  A    between atoms: _218  and  _219
REMARK   90  A    between atoms: _218  and  _221
REMARK   91  A    between atoms: _221  and  _222
REMARK   92  A    between atoms: _226  and  ZN_394
REMARK   93  A    between atoms: _229  and  _230
REMARK   94  A    between atoms: _229  and  _232
REMARK   95  A    between atoms: _232  and  _233
REMARK   96  A    between atoms: _233  and  _234
REMARK   97  A    between atoms: _237  and  _239
REMARK   98  A    between atoms: _239  and  _240
REMARK   99  A    between atoms: _239  and  _242
REMARK  100  A    between atoms: _242  and  _243
REMARK  101  A    between atoms: _246  and  _248
REMARK  102  A    between atoms: _248  and  _249
REMARK  103  A    between atoms: _248  and  _251
REMARK  104  A    between atoms: _251  and  _252
REMARK  105  A    between atoms: _256  and  ZN_394
REMARK  106  A    between atoms: _257  and  _259
REMARK  107  A    between atoms: _259  and  _260
REMARK  108  A    between atoms: _259  and  _262
REMARK  109  A    between atoms: _262  and  _263
REMARK  110  A    between atoms: _265  and  _267
REMARK  111  A    between atoms: _267  and  _268
REMARK  112  A    between atoms: _267  and  _270
REMARK  113  A    between atoms: _270  and  _271
REMARK  114  A    between atoms: _274  and  _276
REMARK  115  A    between atoms: _276  and  _277
REMARK  116  A    between atoms: _279  and  _281
REMARK  117  A    between atoms: _281  and  _282
REMARK  118  A    between atoms: _281  and  _284
REMARK  119  A    between atoms: _284  and  _285
REMARK  120  A    between atoms: _289  and  ZN_394
REMARK  121  A    between atoms: _290  and  _292
REMARK  122  A    between atoms: _292  and  _293
REMARK  123  A    between atoms: _296  and  _298
REMARK  124  A    between atoms: _298  and  _299
REMARK  125  A    between atoms: _298  and  _301
REMARK  126  A    between atoms: _304  and  _306
REMARK  127  A    between atoms: _306  and  _307
REMARK  128  A    between atoms: _306  and  _309
REMARK  129  A    between atoms: _309  and  _310
REMARK  130  A    between atoms: _310  and  _311
REMARK  131  A    between atoms: _313  and  _315
REMARK  132  A    between atoms: _315  and  _316
REMARK  133  A    between atoms: _315  and  _318
REMARK  134  A    between atoms: _318  and  _319
REMARK  135  A    between atoms: _326  and  _327
REMARK  136  A    between atoms: _332  and  _334
REMARK  137  A    between atoms: _334  and  _335
REMARK  138  A    between atoms: _334  and  _337
REMARK  139  A    between atoms: _337  and  _338
REMARK  140  A    between atoms: _341  and  _343
REMARK  141  A    between atoms: _343  and  _344
REMARK  142  A    between atoms: _343  and  _346
REMARK  143  A    between atoms: _346  and  _347
REMARK  144  A    between atoms: _352  and  _353
REMARK  145  A    between atoms: _355  and  _357
REMARK  146  A    between atoms: _357  and  _358
REMARK  147  A    between atoms: _357  and  _360
REMARK  148  A    between atoms: _360  and  _361
REMARK  149  A    between atoms: _361  and  _362
REMARK  150  A    between atoms: _362  and  _363
REMARK  151  A    between atoms: _363  and  _364
REMARK  152  A    between atoms: _368  and  _370
REMARK  153  A    between atoms: _370  and  _371
REMARK  154  A    between atoms: _370  and  _373
REMARK  155  A    between atoms: _373  and  _374
REMARK  156  A    between atoms: _379  and  _380
REMARK  157  A    between atoms: _382  and  _384
REMARK  158  A    between atoms: _384  and  _385
REMARK  159  A    between atoms: _384  and  _387
REMARK  160  A    between atoms: _387  and  _388
REMARK                            x       y       z     vdW  Elec       q    Type
REMARK                         _______ _______ _______ _____ _____    ______ ____
ROOT
ATOM      1  O   HOH     1       8.131  27.323  -2.599  0.00  0.00    +0.000 OA
ENDROOT
TORSDOF 0
REMARK  Name = ../refined-set-2016/1rmz/1rmz_pocket.pdb
REMARK  160 active torsions:
REMARK  status: ('A' for Active; 'I' for Inactive)
REMARK    1  A    between atoms: _1  and  _3
REMARK    2  A    between atoms: _3  and  _4
REMARK    3  A    between atoms: _3  and  _6
REMARK    4  A    between atoms: _6  and  _7
REMARK    5  A    between atoms: _13  and  _15
REMARK    6  A    between atoms: _15  and  _16
REMARK    7  A    between atoms: _15  and  _18
REMARK    8  A    between atoms: _18  and  _19
REMARK    9  A    between atoms: _22  and  _24
REMARK   10  A    between atoms: _24  and  _25
REMARK   11  A    between atoms: _27  and  _29
REMARK   12  A    between atoms: _29  and  _30
REMARK   13  A    between atoms: _32  and  _34
REMARK   14  A    between atoms: _34  and  _35
REMARK   15  A    between atoms: _34  and  _37
REMARK   16  A    between atoms: _35  and  _36
REMARK   17  A    between atoms: _35  and  _41
REMARK   18  A    between atoms: _36  and  CA_395
REMARK   19  A    between atoms: _37  and  _38
REMARK   20  A    between atoms: _41  and  _43
REMARK   21  A    between atoms: _43  and  _44
REMARK   22  A    between atoms: _43  and  _46
REMARK   23  A    between atoms: _46  and  _47
REMARK   24  A    between atoms: _50  and  _52
REMARK   25  A    between atoms: _52  and  _53
REMARK   26  A    between atoms: _56  and  _58
REMARK   27  A    between atoms: _58  and  _59
REMARK   28  A    between atoms: _58  and  _61
REMARK   29  A    between atoms: _61  and  _62
REMARK   30  A    between atoms: _67  and  _69
REMARK   31  A    between atoms: _69  and  _70
REMARK   32  A    between atoms: _73  and  _75
REMARK   33  A    between atoms: _75  and  _76
REMARK   34  A    between atoms: _75  and  _78
REMARK   35  A    between atoms: _78  and  _79
REMARK   36  A    between atoms: _85  and  _87
REMARK   37  A    between atoms: _87  and  _88
REMARK   38  A    between atoms: _87  and  _90
REMARK   39  A    between atoms: _90  and  _91
REMARK   40  A    between atoms: _96  and  _98
REMARK   41  A    between atoms: _98  and  _99
REMARK   42  A    between atoms: _98  and  _101
REMARK   43  A    between atoms: _101  and  _102
REMARK   44  A    between atoms: _108  and  _110
REMARK   45  A    between atoms: _110  and  _111
REMARK   46  A    between atoms: _110  and  _113
REMARK   47  A    between atoms: _113  and  _114
REMARK   48  A    between atoms: _117  and  _119
REMARK   49  A    between atoms: _119  and  _120
REMARK   50  A    between atoms: _119  and  _122
REMARK   51  A    between atoms: _122  and  _123
REMARK   52  A    between atoms: _123  and  _124
REMARK   53  A    between atoms: _124  and  _126
REMARK   54  A    between atoms: _126  and  CA_395
REMARK   55  A    between atoms: _127  and  _129
REMARK   56  A    between atoms: _129  and  _130
REMARK   57  A    between atoms: _129  and  _132
REMARK   58  A    between atoms: _132  and  _133
REMARK   59  A    between atoms: _143  and  _145
REMARK   60  A    between atoms: _145  and  _146
REMARK   61  A    between atoms: _145  and  _148
REMARK   62  A    between atoms: _148  and  _149
REMARK   63  A    between atoms: _152  and  _154
REMARK   64  A    between atoms: _154  and  _155
REMARK   65  A    between atoms: _154  and  _157
REMARK   66  A    between atoms: _157  and  _158
REMARK   67  A    between atoms: _163  and  _165
REMARK   68  A    between atoms: _165  and  _166
REMARK   69  A    between atoms: _165  and  _168
REMARK   70  A    between atoms: _168  and  _169
REMARK   71  A    between atoms: _172  and  _174
REMARK   72  A    between atoms: _174  and  _175
REMARK   73  A    between atoms: _174  and  _177
REMARK   74  A    between atoms: _177  and  _178
REMARK   75  A    between atoms: _184  and  _186
REMARK   76  A    between atoms: _186  and  _187
REMARK   77  A    between atoms: _186  and  _189
REMARK   78  A    between atoms: _189  and  _190
REMARK   79  A    between atoms: _193  and  _195
REMARK   80  A    between atoms: _195  and  _196
REMARK   81  A    between atoms: _195  and  _198
REMARK   82  A    between atoms: _198  and  _199
REMARK   83  A    between atoms: _202  and  _204
REMARK   84  A    between atoms: _204  and  _205
REMARK   85  A    between atoms: _208  and  _210
REMARK   86  A    between atoms: _210  and  _211
REMARK   87  A    between atoms: _210  and  _213
REMARK   88  A    between atoms: _216  and  _218
REMARK   89  A    between atoms: _218  and  _219
REMARK   90  A    between atoms: _218  and  _221
REMARK   91  A    between atoms: _221  and  _222
REMARK   92  A    between atoms: _226  and  ZN_394
REMARK   93  A    between atoms: _229  and  _230
REMARK   94  A    between atoms: _229  and  _232
REMARK   95  A    between atoms: _232  and  _233
REMARK   96  A    between atoms: _233  and  _234
REMARK   97  A    between atoms: _237  and  _239
REMARK   98  A    between atoms: _239  and  _240
REMARK   99  A    between atoms: _239  and  _242
REMARK  100  A    between atoms: _242  and  _243
REMARK  101  A    between atoms: _246  and  _248
REMARK  102  A    between atoms: _248  and  _249
REMARK  103  A    between atoms: _248  and  _251
REMARK  104  A    between atoms: _251  and  _252
REMARK  105  A    between atoms: _256  and  ZN_394
REMARK  106  A    between atoms: _257  and  _259
REMARK  107  A    between atoms: _259  and  _260
REMARK  108  A    between atoms: _259  and  _262
REMARK  109  A    between atoms: _262  and  _263
REMARK  110  A    between atoms: _265  and  _267
REMARK  111  A    between atoms: _267  and  _268
REMARK  112  A    between atoms: _267  and  _270
REMARK  113  A    between atoms: _270  and  _271
REMARK  114  A    between atoms: _274  and  _276
REMARK  115  A    between atoms: _276  and  _277
REMARK  116  A    between atoms: _279  and  _281
REMARK  117  A    between atoms: _281  and  _282
REMARK  118  A    between atoms: _281  and  _284
REMARK  119  A    between atoms: _284  and  _285
REMARK  120  A    between atoms: _289  and  ZN_394
REMARK  121  A    between atoms: _290  and  _292
REMARK  122  A    between atoms: _292  and  _293
REMARK  123  A    between atoms: _296  and  _298
REMARK  124  A    between atoms: _298  and  _299
REMARK  125  A    between atoms: _298  and  _301
REMARK  126  A    between atoms: _304  and  _306
REMARK  127  A    between atoms: _306  and  _307
REMARK  128  A    between atoms: _306  and  _309
REMARK  129  A    between atoms: _309  and  _310
REMARK  130  A    between atoms: _310  and  _311
REMARK  131  A    between atoms: _313  and  _315
REMARK  132  A    between atoms: _315  and  _316
REMARK  133  A    between atoms: _315  and  _318
REMARK  134  A    between atoms: _318  and  _319
REMARK  135  A    between atoms: _326  and  _327
REMARK  136  A    between atoms: _332  and  _334
REMARK  137  A    between atoms: _334  and  _335
REMARK  138  A    between atoms: _334  and  _337
REMARK  139  A    between atoms: _337  and  _338
REMARK  140  A    between atoms: _341  and  _343
REMARK  141  A    between atoms: _343  and  _344
REMARK  142  A    between atoms: _343  and  _346
REMARK  143  A    between atoms: _346  and  _347
REMARK  144  A    between atoms: _352  and  _353
REMARK  145  A    between atoms: _355  and  _357
REMARK  146  A    between atoms: _357  and  _358
REMARK  147  A    between atoms: _357  and  _360
REMARK  148  A    between atoms: _360  and  _361
REMARK  149  A    between atoms: _361  and  _362
REMARK  150  A    between atoms: _362  and  _363
REMARK  151  A    between atoms: _363  and  _364
REMARK  152  A    between atoms: _368  and  _370
REMARK  153  A    between atoms: _370  and  _371
REMARK  154  A    between atoms: _370  and  _373
REMARK  155  A    between atoms: _373  and  _374
REMARK  156  A    between atoms: _379  and  _380
REMARK  157  A    between atoms: _382  and  _384
REMARK  158  A    between atoms: _384  and  _385
REMARK  159  A    between atoms: _384  and  _387
REMARK  160  A    between atoms: _387  and  _388
REMARK                            x       y       z     vdW  Elec       q    Type
REMARK                         _______ _______ _______ _____ _____    ______ ____
ROOT
ATOM      1  O   HOH     1       3.706  31.983   6.757  0.00  0.00    +0.000 OA
ENDROOT
TORSDOF 0
REMARK  Name = ../refined-set-2016/1rmz/1rmz_pocket.pdb
REMARK  160 active torsions:
REMARK  status: ('A' for Active; 'I' for Inactive)
REMARK    1  A    between atoms: _1  and  _3
REMARK    2  A    between atoms: _3  and  _4
REMARK    3  A    between atoms: _3  and  _6
REMARK    4  A    between atoms: _6  and  _7
REMARK    5  A    between atoms: _13  and  _15
REMARK    6  A    between atoms: _15  and  _16
REMARK    7  A    between atoms: _15  and  _18
REMARK    8  A    between atoms: _18  and  _19
REMARK    9  A    between atoms: _22  and  _24
REMARK   10  A    between atoms: _24  and  _25
REMARK   11  A    between atoms: _27  and  _29
REMARK   12  A    between atoms: _29  and  _30
REMARK   13  A    between atoms: _32  and  _34
REMARK   14  A    between atoms: _34  and  _35
REMARK   15  A    between atoms: _34  and  _37
REMARK   16  A    between atoms: _35  and  _36
REMARK   17  A    between atoms: _35  and  _41
REMARK   18  A    between atoms: _36  and  CA_395
REMARK   19  A    between atoms: _37  and  _38
REMARK   20  A    between atoms: _41  and  _43
REMARK   21  A    between atoms: _43  and  _44
REMARK   22  A    between atoms: _43  and  _46
REMARK   23  A    between atoms: _46  and  _47
REMARK   24  A    between atoms: _50  and  _52
REMARK   25  A    between atoms: _52  and  _53
REMARK   26  A    between atoms: _56  and  _58
REMARK   27  A    between atoms: _58  and  _59
REMARK   28  A    between atoms: _58  and  _61
REMARK   29  A    between atoms: _61  and  _62
REMARK   30  A    between atoms: _67  and  _69
REMARK   31  A    between atoms: _69  and  _70
REMARK   32  A    between atoms: _73  and  _75
REMARK   33  A    between atoms: _75  and  _76
REMARK   34  A    between atoms: _75  and  _78
REMARK   35  A    between atoms: _78  and  _79
REMARK   36  A    between atoms: _85  and  _87
REMARK   37  A    between atoms: _87  and  _88
REMARK   38  A    between atoms: _87  and  _90
REMARK   39  A    between atoms: _90  and  _91
REMARK   40  A    between atoms: _96  and  _98
REMARK   41  A    between atoms: _98  and  _99
REMARK   42  A    between atoms: _98  and  _101
REMARK   43  A    between atoms: _101  and  _102
REMARK   44  A    between atoms: _108  and  _110
REMARK   45  A    between atoms: _110  and  _111
REMARK   46  A    between atoms: _110  and  _113
REMARK   47  A    between atoms: _113  and  _114
REMARK   48  A    between atoms: _117  and  _119
REMARK   49  A    between atoms: _119  and  _120
REMARK   50  A    between atoms: _119  and  _122
REMARK   51  A    between atoms: _122  and  _123
REMARK   52  A    between atoms: _123  and  _124
REMARK   53  A    between atoms: _124  and  _126
REMARK   54  A    between atoms: _126  and  CA_395
REMARK   55  A    between atoms: _127  and  _129
REMARK   56  A    between atoms: _129  and  _130
REMARK   57  A    between atoms: _129  and  _132
REMARK   58  A    between atoms: _132  and  _133
REMARK   59  A    between atoms: _143  and  _145
REMARK   60  A    between atoms: _145  and  _146
REMARK   61  A    between atoms: _145  and  _148
REMARK   62  A    between atoms: _148  and  _149
REMARK   63  A    between atoms: _152  and  _154
REMARK   64  A    between atoms: _154  and  _155
REMARK   65  A    between atoms: _154  and  _157
REMARK   66  A    between atoms: _157  and  _158
REMARK   67  A    between atoms: _163  and  _165
REMARK   68  A    between atoms: _165  and  _166
REMARK   69  A    between atoms: _165  and  _168
REMARK   70  A    between atoms: _168  and  _169
REMARK   71  A    between atoms: _172  and  _174
REMARK   72  A    between atoms: _174  and  _175
REMARK   73  A    between atoms: _174  and  _177
REMARK   74  A    between atoms: _177  and  _178
REMARK   75  A    between atoms: _184  and  _186
REMARK   76  A    between atoms: _186  and  _187
REMARK   77  A    between atoms: _186  and  _189
REMARK   78  A    between atoms: _189  and  _190
REMARK   79  A    between atoms: _193  and  _195
REMARK   80  A    between atoms: _195  and  _196
REMARK   81  A    between atoms: _195  and  _198
REMARK   82  A    between atoms: _198  and  _199
REMARK   83  A    between atoms: _202  and  _204
REMARK   84  A    between atoms: _204  and  _205
REMARK   85  A    between atoms: _208  and  _210
REMARK   86  A    between atoms: _210  and  _211
REMARK   87  A    between atoms: _210  and  _213
REMARK   88  A    between atoms: _216  and  _218
REMARK   89  A    between atoms: _218  and  _219
REMARK   90  A    between atoms: _218  and  _221
REMARK   91  A    between atoms: _221  and  _222
REMARK   92  A    between atoms: _226  and  ZN_394
REMARK   93  A    between atoms: _229  and  _230
REMARK   94  A    between atoms: _229  and  _232
REMARK   95  A    between atoms: _232  and  _233
REMARK   96  A    between atoms: _233  and  _234
REMARK   97  A    between atoms: _237  and  _239
REMARK   98  A    between atoms: _239  and  _240
REMARK   99  A    between atoms: _239  and  _242
REMARK  100  A    between atoms: _242  and  _243
REMARK  101  A    between atoms: _246  and  _248
REMARK  102  A    between atoms: _248  and  _249
REMARK  103  A    between atoms: _248  and  _251
REMARK  104  A    between atoms: _251  and  _252
REMARK  105  A    between atoms: _256  and  ZN_394
REMARK  106  A    between atoms: _257  and  _259
REMARK  107  A    between atoms: _259  and  _260
REMARK  108  A    between atoms: _259  and  _262
REMARK  109  A    between atoms: _262  and  _263
REMARK  110  A    between atoms: _265  and  _267
REMARK  111  A    between atoms: _267  and  _268
REMARK  112  A    between atoms: _267  and  _270
REMARK  113  A    between atoms: _270  and  _271
REMARK  114  A    between atoms: _274  and  _276
REMARK  115  A    between atoms: _276  and  _277
REMARK  116  A    between atoms: _279  and  _281
REMARK  117  A    between atoms: _281  and  _282
REMARK  118  A    between atoms: _281  and  _284
REMARK  119  A    between atoms: _284  and  _285
REMARK  120  A    between atoms: _289  and  ZN_394
REMARK  121  A    between atoms: _290  and  _292
REMARK  122  A    between atoms: _292  and  _293
REMARK  123  A    between atoms: _296  and  _298
REMARK  124  A    between atoms: _298  and  _299
REMARK  125  A    between atoms: _298  and  _301
REMARK  126  A    between atoms: _304  and  _306
REMARK  127  A    between atoms: _306  and  _307
REMARK  128  A    between atoms: _306  and  _309
REMARK  129  A    between atoms: _309  and  _310
REMARK  130  A    between atoms: _310  and  _311
REMARK  131  A    between atoms: _313  and  _315
REMARK  132  A    between atoms: _315  and  _316
REMARK  133  A    between atoms: _315  and  _318
REMARK  134  A    between atoms: _318  and  _319
REMARK  135  A    between atoms: _326  and  _327
REMARK  136  A    between atoms: _332  and  _334
REMARK  137  A    between atoms: _334  and  _335
REMARK  138  A    between atoms: _334  and  _337
REMARK  139  A    between atoms: _337  and  _338
REMARK  140  A    between atoms: _341  and  _343
REMARK  141  A    between atoms: _343  and  _344
REMARK  142  A    between atoms: _343  and  _346
REMARK  143  A    between atoms: _346  and  _347
REMARK  144  A    between atoms: _352  and  _353
REMARK  145  A    between atoms: _355  and  _357
REMARK  146  A    between atoms: _357  and  _358
REMARK  147  A    between atoms: _357  and  _360
REMARK  148  A    between atoms: _360  and  _361
REMARK  149  A    between atoms: _361  and  _362
REMARK  150  A    between atoms: _362  and  _363
REMARK  151  A    between atoms: _363  and  _364
REMARK  152  A    between atoms: _368  and  _370
REMARK  153  A    between atoms: _370  and  _371
REMARK  154  A    between atoms: _370  and  _373
REMARK  155  A    between atoms: _373  and  _374
REMARK  156  A    between atoms: _379  and  _380
REMARK  157  A    between atoms: _382  and  _384
REMARK  158  A    between atoms: _384  and  _385
REMARK  159  A    between atoms: _384  and  _387
REMARK  160  A    between atoms: _387  and  _388
REMARK                            x       y       z     vdW  Elec       q    Type
REMARK                         _______ _______ _______ _____ _____    ______ ____
ROOT
ATOM      1  O   HOH     1       8.792  30.351   5.539  0.00  0.00    +0.000 OA
ENDROOT
TORSDOF 0
REMARK  Name = ../refined-set-2016/1rmz/1rmz_pocket.pdb
REMARK  160 active torsions:
REMARK  status: ('A' for Active; 'I' for Inactive)
REMARK    1  A    between atoms: _1  and  _3
REMARK    2  A    between atoms: _3  and  _4
REMARK    3  A    between atoms: _3  and  _6
REMARK    4  A    between atoms: _6  and  _7
REMARK    5  A    between atoms: _13  and  _15
REMARK    6  A    between atoms: _15  and  _16
REMARK    7  A    between atoms: _15  and  _18
REMARK    8  A    between atoms: _18  and  _19
REMARK    9  A    between atoms: _22  and  _24
REMARK   10  A    between atoms: _24  and  _25
REMARK   11  A    between atoms: _27  and  _29
REMARK   12  A    between atoms: _29  and  _30
REMARK   13  A    between atoms: _32  and  _34
REMARK   14  A    between atoms: _34  and  _35
REMARK   15  A    between atoms: _34  and  _37
REMARK   16  A    between atoms: _35  and  _36
REMARK   17  A    between atoms: _35  and  _41
REMARK   18  A    between atoms: _36  and  CA_395
REMARK   19  A    between atoms: _37  and  _38
REMARK   20  A    between atoms: _41  and  _43
REMARK   21  A    between atoms: _43  and  _44
REMARK   22  A    between atoms: _43  and  _46
REMARK   23  A    between atoms: _46  and  _47
REMARK   24  A    between atoms: _50  and  _52
REMARK   25  A    between atoms: _52  and  _53
REMARK   26  A    between atoms: _56  and  _58
REMARK   27  A    between atoms: _58  and  _59
REMARK   28  A    between atoms: _58  and  _61
REMARK   29  A    between atoms: _61  and  _62
REMARK   30  A    between atoms: _67  and  _69
REMARK   31  A    between atoms: _69  and  _70
REMARK   32  A    between atoms: _73  and  _75
REMARK   33  A    between atoms: _75  and  _76
REMARK   34  A    between atoms: _75  and  _78
REMARK   35  A    between atoms: _78  and  _79
REMARK   36  A    between atoms: _85  and  _87
REMARK   37  A    between atoms: _87  and  _88
REMARK   38  A    between atoms: _87  and  _90
REMARK   39  A    between atoms: _90  and  _91
REMARK   40  A    between atoms: _96  and  _98
REMARK   41  A    between atoms: _98  and  _99
REMARK   42  A    between atoms: _98  and  _101
REMARK   43  A    between atoms: _101  and  _102
REMARK   44  A    between atoms: _108  and  _110
REMARK   45  A    between atoms: _110  and  _111
REMARK   46  A    between atoms: _110  and  _113
REMARK   47  A    between atoms: _113  and  _114
REMARK   48  A    between atoms: _117  and  _119
REMARK   49  A    between atoms: _119  and  _120
REMARK   50  A    between atoms: _119  and  _122
REMARK   51  A    between atoms: _122  and  _123
REMARK   52  A    between atoms: _123  and  _124
REMARK   53  A    between atoms: _124  and  _126
REMARK   54  A    between atoms: _126  and  CA_395
REMARK   55  A    between atoms: _127  and  _129
REMARK   56  A    between atoms: _129  and  _130
REMARK   57  A    between atoms: _129  and  _132
REMARK   58  A    between atoms: _132  and  _133
REMARK   59  A    between atoms: _143  and  _145
REMARK   60  A    between atoms: _145  and  _146
REMARK   61  A    between atoms: _145  and  _148
REMARK   62  A    between atoms: _148  and  _149
REMARK   63  A    between atoms: _152  and  _154
REMARK   64  A    between atoms: _154  and  _155
REMARK   65  A    between atoms: _154  and  _157
REMARK   66  A    between atoms: _157  and  _158
REMARK   67  A    between atoms: _163  and  _165
REMARK   68  A    between atoms: _165  and  _166
REMARK   69  A    between atoms: _165  and  _168
REMARK   70  A    between atoms: _168  and  _169
REMARK   71  A    between atoms: _172  and  _174
REMARK   72  A    between atoms: _174  and  _175
REMARK   73  A    between atoms: _174  and  _177
REMARK   74  A    between atoms: _177  and  _178
REMARK   75  A    between atoms: _184  and  _186
REMARK   76  A    between atoms: _186  and  _187
REMARK   77  A    between atoms: _186  and  _189
REMARK   78  A    between atoms: _189  and  _190
REMARK   79  A    between atoms: _193  and  _195
REMARK   80  A    between atoms: _195  and  _196
REMARK   81  A    between atoms: _195  and  _198
REMARK   82  A    between atoms: _198  and  _199
REMARK   83  A    between atoms: _202  and  _204
REMARK   84  A    between atoms: _204  and  _205
REMARK   85  A    between atoms: _208  and  _210
REMARK   86  A    between atoms: _210  and  _211
REMARK   87  A    between atoms: _210  and  _213
REMARK   88  A    between atoms: _216  and  _218
REMARK   89  A    between atoms: _218  and  _219
REMARK   90  A    between atoms: _218  and  _221
REMARK   91  A    between atoms: _221  and  _222
REMARK   92  A    between atoms: _226  and  ZN_394
REMARK   93  A    between atoms: _229  and  _230
REMARK   94  A    between atoms: _229  and  _232
REMARK   95  A    between atoms: _232  and  _233
REMARK   96  A    between atoms: _233  and  _234
REMARK   97  A    between atoms: _237  and  _239
REMARK   98  A    between atoms: _239  and  _240
REMARK   99  A    between atoms: _239  and  _242
REMARK  100  A    between atoms: _242  and  _243
REMARK  101  A    between atoms: _246  and  _248
REMARK  102  A    between atoms: _248  and  _249
REMARK  103  A    between atoms: _248  and  _251
REMARK  104  A    between atoms: _251  and  _252
REMARK  105  A    between atoms: _256  and  ZN_394
REMARK  106  A    between atoms: _257  and  _259
REMARK  107  A    between atoms: _259  and  _260
REMARK  108  A    between atoms: _259  and  _262
REMARK  109  A    between atoms: _262  and  _263
REMARK  110  A    between atoms: _265  and  _267
REMARK  111  A    between atoms: _267  and  _268
REMARK  112  A    between atoms: _267  and  _270
REMARK  113  A    between atoms: _270  and  _271
REMARK  114  A    between atoms: _274  and  _276
REMARK  115  A    between atoms: _276  and  _277
REMARK  116  A    between atoms: _279  and  _281
REMARK  117  A    between atoms: _281  and  _282
REMARK  118  A    between atoms: _281  and  _284
REMARK  119  A    between atoms: _284  and  _285
REMARK  120  A    between atoms: _289  and  ZN_394
REMARK  121  A    between atoms: _290  and  _292
REMARK  122  A    between atoms: _292  and  _293
REMARK  123  A    between atoms: _296  and  _298
REMARK  124  A    between atoms: _298  and  _299
REMARK  125  A    between atoms: _298  and  _301
REMARK  126  A    between atoms: _304  and  _306
REMARK  127  A    between atoms: _306  and  _307
REMARK  128  A    between atoms: _306  and  _309
REMARK  129  A    between atoms: _309  and  _310
REMARK  130  A    between atoms: _310  and  _311
REMARK  131  A    between atoms: _313  and  _315
REMARK  132  A    between atoms: _315  and  _316
REMARK  133  A    between atoms: _315  and  _318
REMARK  134  A    between atoms: _318  and  _319
REMARK  135  A    between atoms: _326  and  _327
REMARK  136  A    between atoms: _332  and  _334
REMARK  137  A    between atoms: _334  and  _335
REMARK  138  A    between atoms: _334  and  _337
REMARK  139  A    between atoms: _337  and  _338
REMARK  140  A    between atoms: _341  and  _343
REMARK  141  A    between atoms: _343  and  _344
REMARK  142  A    between atoms: _343  and  _346
REMARK  143  A    between atoms: _346  and  _347
REMARK  144  A    between atoms: _352  and  _353
REMARK  145  A    between atoms: _355  and  _357
REMARK  146  A    between atoms: _357  and  _358
REMARK  147  A    between atoms: _357  and  _360
REMARK  148  A    between atoms: _360  and  _361
REMARK  149  A    between atoms: _361  and  _362
REMARK  150  A    between atoms: _362  and  _363
REMARK  151  A    between atoms: _363  and  _364
REMARK  152  A    between atoms: _368  and  _370
REMARK  153  A    between atoms: _370  and  _371
REMARK  154  A    between atoms: _370  and  _373
REMARK  155  A    between atoms: _373  and  _374
REMARK  156  A    between atoms: _379  and  _380
REMARK  157  A    between atoms: _382  and  _384
REMARK  158  A    between atoms: _384  and  _385
REMARK  159  A    between atoms: _384  and  _387
REMARK  160  A    between atoms: _387  and  _388
REMARK                            x       y       z     vdW  Elec       q    Type
REMARK                         _______ _______ _______ _____ _____    ______ ____
ROOT
ATOM      1  O   HOH     1      10.532  32.351  10.441  0.00  0.00    +0.000 OA
ENDROOT
TORSDOF 0
REMARK  Name = ../refined-set-2016/1rmz/1rmz_pocket.pdb
REMARK  160 active torsions:
REMARK  status: ('A' for Active; 'I' for Inactive)
REMARK    1  A    between atoms: _1  and  _3
REMARK    2  A    between atoms: _3  and  _4
REMARK    3  A    between atoms: _3  and  _6
REMARK    4  A    between atoms: _6  and  _7
REMARK    5  A    between atoms: _13  and  _15
REMARK    6  A    between atoms: _15  and  _16
REMARK    7  A    between atoms: _15  and  _18
REMARK    8  A    between atoms: _18  and  _19
REMARK    9  A    between atoms: _22  and  _24
REMARK   10  A    between atoms: _24  and  _25
REMARK   11  A    between atoms: _27  and  _29
REMARK   12  A    between atoms: _29  and  _30
REMARK   13  A    between atoms: _32  and  _34
REMARK   14  A    between atoms: _34  and  _35
REMARK   15  A    between atoms: _34  and  _37
REMARK   16  A    between atoms: _35  and  _36
REMARK   17  A    between atoms: _35  and  _41
REMARK   18  A    between atoms: _36  and  CA_395
REMARK   19  A    between atoms: _37  and  _38
REMARK   20  A    between atoms: _41  and  _43
REMARK   21  A    between atoms: _43  and  _44
REMARK   22  A    between atoms: _43  and  _46
REMARK   23  A    between atoms: _46  and  _47
REMARK   24  A    between atoms: _50  and  _52
REMARK   25  A    between atoms: _52  and  _53
REMARK   26  A    between atoms: _56  and  _58
REMARK   27  A    between atoms: _58  and  _59
REMARK   28  A    between atoms: _58  and  _61
REMARK   29  A    between atoms: _61  and  _62
REMARK   30  A    between atoms: _67  and  _69
REMARK   31  A    between atoms: _69  and  _70
REMARK   32  A    between atoms: _73  and  _75
REMARK   33  A    between atoms: _75  and  _76
REMARK   34  A    between atoms: _75  and  _78
REMARK   35  A    between atoms: _78  and  _79
REMARK   36  A    between atoms: _85  and  _87
REMARK   37  A    between atoms: _87  and  _88
REMARK   38  A    between atoms: _87  and  _90
REMARK   39  A    between atoms: _90  and  _91
REMARK   40  A    between atoms: _96  and  _98
REMARK   41  A    between atoms: _98  and  _99
REMARK   42  A    between atoms: _98  and  _101
REMARK   43  A    between atoms: _101  and  _102
REMARK   44  A    between atoms: _108  and  _110
REMARK   45  A    between atoms: _110  and  _111
REMARK   46  A    between atoms: _110  and  _113
REMARK   47  A    between atoms: _113  and  _114
REMARK   48  A    between atoms: _117  and  _119
REMARK   49  A    between atoms: _119  and  _120
REMARK   50  A    between atoms: _119  and  _122
REMARK   51  A    between atoms: _122  and  _123
REMARK   52  A    between atoms: _123  and  _124
REMARK   53  A    between atoms: _124  and  _126
REMARK   54  A    between atoms: _126  and  CA_395
REMARK   55  A    between atoms: _127  and  _129
REMARK   56  A    between atoms: _129  and  _130
REMARK   57  A    between atoms: _129  and  _132
REMARK   58  A    between atoms: _132  and  _133
REMARK   59  A    between atoms: _143  and  _145
REMARK   60  A    between atoms: _145  and  _146
REMARK   61  A    between atoms: _145  and  _148
REMARK   62  A    between atoms: _148  and  _149
REMARK   63  A    between atoms: _152  and  _154
REMARK   64  A    between atoms: _154  and  _155
REMARK   65  A    between atoms: _154  and  _157
REMARK   66  A    between atoms: _157  and  _158
REMARK   67  A    between atoms: _163  and  _165
REMARK   68  A    between atoms: _165  and  _166
REMARK   69  A    between atoms: _165  and  _168
REMARK   70  A    between atoms: _168  and  _169
REMARK   71  A    between atoms: _172  and  _174
REMARK   72  A    between atoms: _174  and  _175
REMARK   73  A    between atoms: _174  and  _177
REMARK   74  A    between atoms: _177  and  _178
REMARK   75  A    between atoms: _184  and  _186
REMARK   76  A    between atoms: _186  and  _187
REMARK   77  A    between atoms: _186  and  _189
REMARK   78  A    between atoms: _189  and  _190
REMARK   79  A    between atoms: _193  and  _195
REMARK   80  A    between atoms: _195  and  _196
REMARK   81  A    between atoms: _195  and  _198
REMARK   82  A    between atoms: _198  and  _199
REMARK   83  A    between atoms: _202  and  _204
REMARK   84  A    between atoms: _204  and  _205
REMARK   85  A    between atoms: _208  and  _210
REMARK   86  A    between atoms: _210  and  _211
REMARK   87  A    between atoms: _210  and  _213
REMARK   88  A    between atoms: _216  and  _218
REMARK   89  A    between atoms: _218  and  _219
REMARK   90  A    between atoms: _218  and  _221
REMARK   91  A    between atoms: _221  and  _222
REMARK   92  A    between atoms: _226  and  ZN_394
REMARK   93  A    between atoms: _229  and  _230
REMARK   94  A    between atoms: _229  and  _232
REMARK   95  A    between atoms: _232  and  _233
REMARK   96  A    between atoms: _233  and  _234
REMARK   97  A    between atoms: _237  and  _239
REMARK   98  A    between atoms: _239  and  _240
REMARK   99  A    between atoms: _239  and  _242
REMARK  100  A    between atoms: _242  and  _243
REMARK  101  A    between atoms: _246  and  _248
REMARK  102  A    between atoms: _248  and  _249
REMARK  103  A    between atoms: _248  and  _251
REMARK  104  A    between atoms: _251  and  _252
REMARK  105  A    between atoms: _256  and  ZN_394
REMARK  106  A    between atoms: _257  and  _259
REMARK  107  A    between atoms: _259  and  _260
REMARK  108  A    between atoms: _259  and  _262
REMARK  109  A    between atoms: _262  and  _263
REMARK  110  A    between atoms: _265  and  _267
REMARK  111  A    between atoms: _267  and  _268
REMARK  112  A    between atoms: _267  and  _270
REMARK  113  A    between atoms: _270  and  _271
REMARK  114  A    between atoms: _274  and  _276
REMARK  115  A    between atoms: _276  and  _277
REMARK  116  A    between atoms: _279  and  _281
REMARK  117  A    between atoms: _281  and  _282
REMARK  118  A    between atoms: _281  and  _284
REMARK  119  A    between atoms: _284  and  _285
REMARK  120  A    between atoms: _289  and  ZN_394
REMARK  121  A    between atoms: _290  and  _292
REMARK  122  A    between atoms: _292  and  _293
REMARK  123  A    between atoms: _296  and  _298
REMARK  124  A    between atoms: _298  and  _299
REMARK  125  A    between atoms: _298  and  _301
REMARK  126  A    between atoms: _304  and  _306
REMARK  127  A    between atoms: _306  and  _307
REMARK  128  A    between atoms: _306  and  _309
REMARK  129  A    between atoms: _309  and  _310
REMARK  130  A    between atoms: _310  and  _311
REMARK  131  A    between atoms: _313  and  _315
REMARK  132  A    between atoms: _315  and  _316
REMARK  133  A    between atoms: _315  and  _318
REMARK  134  A    between atoms: _318  and  _319
REMARK  135  A    between atoms: _326  and  _327
REMARK  136  A    between atoms: _332  and  _334
REMARK  137  A    between atoms: _334  and  _335
REMARK  138  A    between atoms: _334  and  _337
REMARK  139  A    between atoms: _337  and  _338
REMARK  140  A    between atoms: _341  and  _343
REMARK  141  A    between atoms: _343  and  _344
REMARK  142  A    between atoms: _343  and  _346
REMARK  143  A    between atoms: _346  and  _347
REMARK  144  A    between atoms: _352  and  _353
REMARK  145  A    between atoms: _355  and  _357
REMARK  146  A    between atoms: _357  and  _358
REMARK  147  A    between atoms: _357  and  _360
REMARK  148  A    between atoms: _360  and  _361
REMARK  149  A    between atoms: _361  and  _362
REMARK  150  A    between atoms: _362  and  _363
REMARK  151  A    between atoms: _363  and  _364
REMARK  152  A    between atoms: _368  and  _370
REMARK  153  A    between atoms: _370  and  _371
REMARK  154  A    between atoms: _370  and  _373
REMARK  155  A    between atoms: _373  and  _374
REMARK  156  A    between atoms: _379  and  _380
REMARK  157  A    between atoms: _382  and  _384
REMARK  158  A    between atoms: _384  and  _385
REMARK  159  A    between atoms: _384  and  _387
REMARK  160  A    between atoms: _387  and  _388
REMARK                            x       y       z     vdW  Elec       q    Type
REMARK                         _______ _______ _______ _____ _____    ______ ____
ROOT
ATOM      1  O   HOH     1      11.722  26.807  -1.095  0.00  0.00    +0.000 OA
ENDROOT
TORSDOF 0
REMARK  Name = ../refined-set-2016/1rmz/1rmz_pocket.pdb
REMARK  160 active torsions:
REMARK  status: ('A' for Active; 'I' for Inactive)
REMARK    1  A    between atoms: _1  and  _3
REMARK    2  A    between atoms: _3  and  _4
REMARK    3  A    between atoms: _3  and  _6
REMARK    4  A    between atoms: _6  and  _7
REMARK    5  A    between atoms: _13  and  _15
REMARK    6  A    between atoms: _15  and  _16
REMARK    7  A    between atoms: _15  and  _18
REMARK    8  A    between atoms: _18  and  _19
REMARK    9  A    between atoms: _22  and  _24
REMARK   10  A    between atoms: _24  and  _25
REMARK   11  A    between atoms: _27  and  _29
REMARK   12  A    between atoms: _29  and  _30
REMARK   13  A    between atoms: _32  and  _34
REMARK   14  A    between atoms: _34  and  _35
REMARK   15  A    between atoms: _34  and  _37
REMARK   16  A    between atoms: _35  and  _36
REMARK   17  A    between atoms: _35  and  _41
REMARK   18  A    between atoms: _36  and  CA_395
REMARK   19  A    between atoms: _37  and  _38
REMARK   20  A    between atoms: _41  and  _43
REMARK   21  A    between atoms: _43  and  _44
REMARK   22  A    between atoms: _43  and  _46
REMARK   23  A    between atoms: _46  and  _47
REMARK   24  A    between atoms: _50  and  _52
REMARK   25  A    between atoms: _52  and  _53
REMARK   26  A    between atoms: _56  and  _58
REMARK   27  A    between atoms: _58  and  _59
REMARK   28  A    between atoms: _58  and  _61
REMARK   29  A    between atoms: _61  and  _62
REMARK   30  A    between atoms: _67  and  _69
REMARK   31  A    between atoms: _69  and  _70
REMARK   32  A    between atoms: _73  and  _75
REMARK   33  A    between atoms: _75  and  _76
REMARK   34  A    between atoms: _75  and  _78
REMARK   35  A    between atoms: _78  and  _79
REMARK   36  A    between atoms: _85  and  _87
REMARK   37  A    between atoms: _87  and  _88
REMARK   38  A    between atoms: _87  and  _90
REMARK   39  A    between atoms: _90  and  _91
REMARK   40  A    between atoms: _96  and  _98
REMARK   41  A    between atoms: _98  and  _99
REMARK   42  A    between atoms: _98  and  _101
REMARK   43  A    between atoms: _101  and  _102
REMARK   44  A    between atoms: _108  and  _110
REMARK   45  A    between atoms: _110  and  _111
REMARK   46  A    between atoms: _110  and  _113
REMARK   47  A    between atoms: _113  and  _114
REMARK   48  A    between atoms: _117  and  _119
REMARK   49  A    between atoms: _119  and  _120
REMARK   50  A    between atoms: _119  and  _122
REMARK   51  A    between atoms: _122  and  _123
REMARK   52  A    between atoms: _123  and  _124
REMARK   53  A    between atoms: _124  and  _126
REMARK   54  A    between atoms: _126  and  CA_395
REMARK   55  A    between atoms: _127  and  _129
REMARK   56  A    between atoms: _129  and  _130
REMARK   57  A    between atoms: _129  and  _132
REMARK   58  A    between atoms: _132  and  _133
REMARK   59  A    between atoms: _143  and  _145
REMARK   60  A    between atoms: _145  and  _146
REMARK   61  A    between atoms: _145  and  _148
REMARK   62  A    between atoms: _148  and  _149
REMARK   63  A    between atoms: _152  and  _154
REMARK   64  A    between atoms: _154  and  _155
REMARK   65  A    between atoms: _154  and  _157
REMARK   66  A    between atoms: _157  and  _158
REMARK   67  A    between atoms: _163  and  _165
REMARK   68  A    between atoms: _165  and  _166
REMARK   69  A    between atoms: _165  and  _168
REMARK   70  A    between atoms: _168  and  _169
REMARK   71  A    between atoms: _172  and  _174
REMARK   72  A    between atoms: _174  and  _175
REMARK   73  A    between atoms: _174  and  _177
REMARK   74  A    between atoms: _177  and  _178
REMARK   75  A    between atoms: _184  and  _186
REMARK   76  A    between atoms: _186  and  _187
REMARK   77  A    between atoms: _186  and  _189
REMARK   78  A    between atoms: _189  and  _190
REMARK   79  A    between atoms: _193  and  _195
REMARK   80  A    between atoms: _195  and  _196
REMARK   81  A    between atoms: _195  and  _198
REMARK   82  A    between atoms: _198  and  _199
REMARK   83  A    between atoms: _202  and  _204
REMARK   84  A    between atoms: _204  and  _205
REMARK   85  A    between atoms: _208  and  _210
REMARK   86  A    between atoms: _210  and  _211
REMARK   87  A    between atoms: _210  and  _213
REMARK   88  A    between atoms: _216  and  _218
REMARK   89  A    between atoms: _218  and  _219
REMARK   90  A    between atoms: _218  and  _221
REMARK   91  A    between atoms: _221  and  _222
REMARK   92  A    between atoms: _226  and  ZN_394
REMARK   93  A    between atoms: _229  and  _230
REMARK   94  A    between atoms: _229  and  _232
REMARK   95  A    between atoms: _232  and  _233
REMARK   96  A    between atoms: _233  and  _234
REMARK   97  A    between atoms: _237  and  _239
REMARK   98  A    between atoms: _239  and  _240
REMARK   99  A    between atoms: _239  and  _242
REMARK  100  A    between atoms: _242  and  _243
REMARK  101  A    between atoms: _246  and  _248
REMARK  102  A    between atoms: _248  and  _249
REMARK  103  A    between atoms: _248  and  _251
REMARK  104  A    between atoms: _251  and  _252
REMARK  105  A    between atoms: _256  and  ZN_394
REMARK  106  A    between atoms: _257  and  _259
REMARK  107  A    between atoms: _259  and  _260
REMARK  108  A    between atoms: _259  and  _262
REMARK  109  A    between atoms: _262  and  _263
REMARK  110  A    between atoms: _265  and  _267
REMARK  111  A    between atoms: _267  and  _268
REMARK  112  A    between atoms: _267  and  _270
REMARK  113  A    between atoms: _270  and  _271
REMARK  114  A    between atoms: _274  and  _276
REMARK  115  A    between atoms: _276  and  _277
REMARK  116  A    between atoms: _279  and  _281
REMARK  117  A    between atoms: _281  and  _282
REMARK  118  A    between atoms: _281  and  _284
REMARK  119  A    between atoms: _284  and  _285
REMARK  120  A    between atoms: _289  and  ZN_394
REMARK  121  A    between atoms: _290  and  _292
REMARK  122  A    between atoms: _292  and  _293
REMARK  123  A    between atoms: _296  and  _298
REMARK  124  A    between atoms: _298  and  _299
REMARK  125  A    between atoms: _298  and  _301
REMARK  126  A    between atoms: _304  and  _306
REMARK  127  A    between atoms: _306  and  _307
REMARK  128  A    between atoms: _306  and  _309
REMARK  129  A    between atoms: _309  and  _310
REMARK  130  A    between atoms: _310  and  _311
REMARK  131  A    between atoms: _313  and  _315
REMARK  132  A    between atoms: _315  and  _316
REMARK  133  A    between atoms: _315  and  _318
REMARK  134  A    between atoms: _318  and  _319
REMARK  135  A    between atoms: _326  and  _327
REMARK  136  A    between atoms: _332  and  _334
REMARK  137  A    between atoms: _334  and  _335
REMARK  138  A    between atoms: _334  and  _337
REMARK  139  A    between atoms: _337  and  _338
REMARK  140  A    between atoms: _341  and  _343
REMARK  141  A    between atoms: _343  and  _344
REMARK  142  A    between atoms: _343  and  _346
REMARK  143  A    between atoms: _346  and  _347
REMARK  144  A    between atoms: _352  and  _353
REMARK  145  A    between atoms: _355  and  _357
REMARK  146  A    between atoms: _357  and  _358
REMARK  147  A    between atoms: _357  and  _360
REMARK  148  A    between atoms: _360  and  _361
REMARK  149  A    between atoms: _361  and  _362
REMARK  150  A    between atoms: _362  and  _363
REMARK  151  A    between atoms: _363  and  _364
REMARK  152  A    between atoms: _368  and  _370
REMARK  153  A    between atoms: _370  and  _371
REMARK  154  A    between atoms: _370  and  _373
REMARK  155  A    between atoms: _373  and  _374
REMARK  156  A    between atoms: _379  and  _380
REMARK  157  A    between atoms: _382  and  _384
REMARK  158  A    between atoms: _384  and  _385
REMARK  159  A    between atoms: _384  and  _387
REMARK  160  A    between atoms: _387  and  _388
REMARK                            x       y       z     vdW  Elec       q    Type
REMARK                         _______ _______ _______ _____ _____    ______ ____
ROOT
ATOM      1  O   HOH     1       8.701  30.325  -2.590  0.00  0.00    +0.000 OA
ENDROOT
TORSDOF 0
REMARK  Name = ../refined-set-2016/1rmz/1rmz_pocket.pdb
REMARK  160 active torsions:
REMARK  status: ('A' for Active; 'I' for Inactive)
REMARK    1  A    between atoms: _1  and  _3
REMARK    2  A    between atoms: _3  and  _4
REMARK    3  A    between atoms: _3  and  _6
REMARK    4  A    between atoms: _6  and  _7
REMARK    5  A    between atoms: _13  and  _15
REMARK    6  A    between atoms: _15  and  _16
REMARK    7  A    between atoms: _15  and  _18
REMARK    8  A    between atoms: _18  and  _19
REMARK    9  A    between atoms: _22  and  _24
REMARK   10  A    between atoms: _24  and  _25
REMARK   11  A    between atoms: _27  and  _29
REMARK   12  A    between atoms: _29  and  _30
REMARK   13  A    between atoms: _32  and  _34
REMARK   14  A    between atoms: _34  and  _35
REMARK   15  A    between atoms: _34  and  _37
REMARK   16  A    between atoms: _35  and  _36
REMARK   17  A    between atoms: _35  and  _41
REMARK   18  A    between atoms: _36  and  CA_395
REMARK   19  A    between atoms: _37  and  _38
REMARK   20  A    between atoms: _41  and  _43
REMARK   21  A    between atoms: _43  and  _44
REMARK   22  A    between atoms: _43  and  _46
REMARK   23  A    between atoms: _46  and  _47
REMARK   24  A    between atoms: _50  and  _52
REMARK   25  A    between atoms: _52  and  _53
REMARK   26  A    between atoms: _56  and  _58
REMARK   27  A    between atoms: _58  and  _59
REMARK   28  A    between atoms: _58  and  _61
REMARK   29  A    between atoms: _61  and  _62
REMARK   30  A    between atoms: _67  and  _69
REMARK   31  A    between atoms: _69  and  _70
REMARK   32  A    between atoms: _73  and  _75
REMARK   33  A    between atoms: _75  and  _76
REMARK   34  A    between atoms: _75  and  _78
REMARK   35  A    between atoms: _78  and  _79
REMARK   36  A    between atoms: _85  and  _87
REMARK   37  A    between atoms: _87  and  _88
REMARK   38  A    between atoms: _87  and  _90
REMARK   39  A    between atoms: _90  and  _91
REMARK   40  A    between atoms: _96  and  _98
REMARK   41  A    between atoms: _98  and  _99
REMARK   42  A    between atoms: _98  and  _101
REMARK   43  A    between atoms: _101  and  _102
REMARK   44  A    between atoms: _108  and  _110
REMARK   45  A    between atoms: _110  and  _111
REMARK   46  A    between atoms: _110  and  _113
REMARK   47  A    between atoms: _113  and  _114
REMARK   48  A    between atoms: _117  and  _119
REMARK   49  A    between atoms: _119  and  _120
REMARK   50  A    between atoms: _119  and  _122
REMARK   51  A    between atoms: _122  and  _123
REMARK   52  A    between atoms: _123  and  _124
REMARK   53  A    between atoms: _124  and  _126
REMARK   54  A    between atoms: _126  and  CA_395
REMARK   55  A    between atoms: _127  and  _129
REMARK   56  A    between atoms: _129  and  _130
REMARK   57  A    between atoms: _129  and  _132
REMARK   58  A    between atoms: _132  and  _133
REMARK   59  A    between atoms: _143  and  _145
REMARK   60  A    between atoms: _145  and  _146
REMARK   61  A    between atoms: _145  and  _148
REMARK   62  A    between atoms: _148  and  _149
REMARK   63  A    between atoms: _152  and  _154
REMARK   64  A    between atoms: _154  and  _155
REMARK   65  A    between atoms: _154  and  _157
REMARK   66  A    between atoms: _157  and  _158
REMARK   67  A    between atoms: _163  and  _165
REMARK   68  A    between atoms: _165  and  _166
REMARK   69  A    between atoms: _165  and  _168
REMARK   70  A    between atoms: _168  and  _169
REMARK   71  A    between atoms: _172  and  _174
REMARK   72  A    between atoms: _174  and  _175
REMARK   73  A    between atoms: _174  and  _177
REMARK   74  A    between atoms: _177  and  _178
REMARK   75  A    between atoms: _184  and  _186
REMARK   76  A    between atoms: _186  and  _187
REMARK   77  A    between atoms: _186  and  _189
REMARK   78  A    between atoms: _189  and  _190
REMARK   79  A    between atoms: _193  and  _195
REMARK   80  A    between atoms: _195  and  _196
REMARK   81  A    between atoms: _195  and  _198
REMARK   82  A    between atoms: _198  and  _199
REMARK   83  A    between atoms: _202  and  _204
REMARK   84  A    between atoms: _204  and  _205
REMARK   85  A    between atoms: _208  and  _210
REMARK   86  A    between atoms: _210  and  _211
REMARK   87  A    between atoms: _210  and  _213
REMARK   88  A    between atoms: _216  and  _218
REMARK   89  A    between atoms: _218  and  _219
REMARK   90  A    between atoms: _218  and  _221
REMARK   91  A    between atoms: _221  and  _222
REMARK   92  A    between atoms: _226  and  ZN_394
REMARK   93  A    between atoms: _229  and  _230
REMARK   94  A    between atoms: _229  and  _232
REMARK   95  A    between atoms: _232  and  _233
REMARK   96  A    between atoms: _233  and  _234
REMARK   97  A    between atoms: _237  and  _239
REMARK   98  A    between atoms: _239  and  _240
REMARK   99  A    between atoms: _239  and  _242
REMARK  100  A    between atoms: _242  and  _243
REMARK  101  A    between atoms: _246  and  _248
REMARK  102  A    between atoms: _248  and  _249
REMARK  103  A    between atoms: _248  and  _251
REMARK  104  A    between atoms: _251  and  _252
REMARK  105  A    between atoms: _256  and  ZN_394
REMARK  106  A    between atoms: _257  and  _259
REMARK  107  A    between atoms: _259  and  _260
REMARK  108  A    between atoms: _259  and  _262
REMARK  109  A    between atoms: _262  and  _263
REMARK  110  A    between atoms: _265  and  _267
REMARK  111  A    between atoms: _267  and  _268
REMARK  112  A    between atoms: _267  and  _270
REMARK  113  A    between atoms: _270  and  _271
REMARK  114  A    between atoms: _274  and  _276
REMARK  115  A    between atoms: _276  and  _277
REMARK  116  A    between atoms: _279  and  _281
REMARK  117  A    between atoms: _281  and  _282
REMARK  118  A    between atoms: _281  and  _284
REMARK  119  A    between atoms: _284  and  _285
REMARK  120  A    between atoms: _289  and  ZN_394
REMARK  121  A    between atoms: _290  and  _292
REMARK  122  A    between atoms: _292  and  _293
REMARK  123  A    between atoms: _296  and  _298
REMARK  124  A    between atoms: _298  and  _299
REMARK  125  A    between atoms: _298  and  _301
REMARK  126  A    between atoms: _304  and  _306
REMARK  127  A    between atoms: _306  and  _307
REMARK  128  A    between atoms: _306  and  _309
REMARK  129  A    between atoms: _309  and  _310
REMARK  130  A    between atoms: _310  and  _311
REMARK  131  A    between atoms: _313  and  _315
REMARK  132  A    between atoms: _315  and  _316
REMARK  133  A    between atoms: _315  and  _318
REMARK  134  A    between atoms: _318  and  _319
REMARK  135  A    between atoms: _326  and  _327
REMARK  136  A    between atoms: _332  and  _334
REMARK  137  A    between atoms: _334  and  _335
REMARK  138  A    between atoms: _334  and  _337
REMARK  139  A    between atoms: _337  and  _338
REMARK  140  A    between atoms: _341  and  _343
REMARK  141  A    between atoms: _343  and  _344
REMARK  142  A    between atoms: _343  and  _346
REMARK  143  A    between atoms: _346  and  _347
REMARK  144  A    between atoms: _352  and  _353
REMARK  145  A    between atoms: _355  and  _357
REMARK  146  A    between atoms: _357  and  _358
REMARK  147  A    between atoms: _357  and  _360
REMARK  148  A    between atoms: _360  and  _361
REMARK  149  A    between atoms: _361  and  _362
REMARK  150  A    between atoms: _362  and  _363
REMARK  151  A    between atoms: _363  and  _364
REMARK  152  A    between atoms: _368  and  _370
REMARK  153  A    between atoms: _370  and  _371
REMARK  154  A    between atoms: _370  and  _373
REMARK  155  A    between atoms: _373  and  _374
REMARK  156  A    between atoms: _379  and  _380
REMARK  157  A    between atoms: _382  and  _384
REMARK  158  A    between atoms: _384  and  _385
REMARK  159  A    between atoms: _384  and  _387
REMARK  160  A    between atoms: _387  and  _388
REMARK                            x       y       z     vdW  Elec       q    Type
REMARK                         _______ _______ _______ _____ _____    ______ ____
ROOT
ATOM      1  O   HOH     1       8.035  22.869  -4.360  0.00  0.00    +0.000 OA
ENDROOT
TORSDOF 0
REMARK  Name = ../refined-set-2016/1rmz/1rmz_pocket.pdb
REMARK  160 active torsions:
REMARK  status: ('A' for Active; 'I' for Inactive)
REMARK    1  A    between atoms: _1  and  _3
REMARK    2  A    between atoms: _3  and  _4
REMARK    3  A    between atoms: _3  and  _6
REMARK    4  A    between atoms: _6  and  _7
REMARK    5  A    between atoms: _13  and  _15
REMARK    6  A    between atoms: _15  and  _16
REMARK    7  A    between atoms: _15  and  _18
REMARK    8  A    between atoms: _18  and  _19
REMARK    9  A    between atoms: _22  and  _24
REMARK   10  A    between atoms: _24  and  _25
REMARK   11  A    between atoms: _27  and  _29
REMARK   12  A    between atoms: _29  and  _30
REMARK   13  A    between atoms: _32  and  _34
REMARK   14  A    between atoms: _34  and  _35
REMARK   15  A    between atoms: _34  and  _37
REMARK   16  A    between atoms: _35  and  _36
REMARK   17  A    between atoms: _35  and  _41
REMARK   18  A    between atoms: _36  and  CA_395
REMARK   19  A    between atoms: _37  and  _38
REMARK   20  A    between atoms: _41  and  _43
REMARK   21  A    between atoms: _43  and  _44
REMARK   22  A    between atoms: _43  and  _46
REMARK   23  A    between atoms: _46  and  _47
REMARK   24  A    between atoms: _50  and  _52
REMARK   25  A    between atoms: _52  and  _53
REMARK   26  A    between atoms: _56  and  _58
REMARK   27  A    between atoms: _58  and  _59
REMARK   28  A    between atoms: _58  and  _61
REMARK   29  A    between atoms: _61  and  _62
REMARK   30  A    between atoms: _67  and  _69
REMARK   31  A    between atoms: _69  and  _70
REMARK   32  A    between atoms: _73  and  _75
REMARK   33  A    between atoms: _75  and  _76
REMARK   34  A    between atoms: _75  and  _78
REMARK   35  A    between atoms: _78  and  _79
REMARK   36  A    between atoms: _85  and  _87
REMARK   37  A    between atoms: _87  and  _88
REMARK   38  A    between atoms: _87  and  _90
REMARK   39  A    between atoms: _90  and  _91
REMARK   40  A    between atoms: _96  and  _98
REMARK   41  A    between atoms: _98  and  _99
REMARK   42  A    between atoms: _98  and  _101
REMARK   43  A    between atoms: _101  and  _102
REMARK   44  A    between atoms: _108  and  _110
REMARK   45  A    between atoms: _110  and  _111
REMARK   46  A    between atoms: _110  and  _113
REMARK   47  A    between atoms: _113  and  _114
REMARK   48  A    between atoms: _117  and  _119
REMARK   49  A    between atoms: _119  and  _120
REMARK   50  A    between atoms: _119  and  _122
REMARK   51  A    between atoms: _122  and  _123
REMARK   52  A    between atoms: _123  and  _124
REMARK   53  A    between atoms: _124  and  _126
REMARK   54  A    between atoms: _126  and  CA_395
REMARK   55  A    between atoms: _127  and  _129
REMARK   56  A    between atoms: _129  and  _130
REMARK   57  A    between atoms: _129  and  _132
REMARK   58  A    between atoms: _132  and  _133
REMARK   59  A    between atoms: _143  and  _145
REMARK   60  A    between atoms: _145  and  _146
REMARK   61  A    between atoms: _145  and  _148
REMARK   62  A    between atoms: _148  and  _149
REMARK   63  A    between atoms: _152  and  _154
REMARK   64  A    between atoms: _154  and  _155
REMARK   65  A    between atoms: _154  and  _157
REMARK   66  A    between atoms: _157  and  _158
REMARK   67  A    between atoms: _163  and  _165
REMARK   68  A    between atoms: _165  and  _166
REMARK   69  A    between atoms: _165  and  _168
REMARK   70  A    between atoms: _168  and  _169
REMARK   71  A    between atoms: _172  and  _174
REMARK   72  A    between atoms: _174  and  _175
REMARK   73  A    between atoms: _174  and  _177
REMARK   74  A    between atoms: _177  and  _178
REMARK   75  A    between atoms: _184  and  _186
REMARK   76  A    between atoms: _186  and  _187
REMARK   77  A    between atoms: _186  and  _189
REMARK   78  A    between atoms: _189  and  _190
REMARK   79  A    between atoms: _193  and  _195
REMARK   80  A    between atoms: _195  and  _196
REMARK   81  A    between atoms: _195  and  _198
REMARK   82  A    between atoms: _198  and  _199
REMARK   83  A    between atoms: _202  and  _204
REMARK   84  A    between atoms: _204  and  _205
REMARK   85  A    between atoms: _208  and  _210
REMARK   86  A    between atoms: _210  and  _211
REMARK   87  A    between atoms: _210  and  _213
REMARK   88  A    between atoms: _216  and  _218
REMARK   89  A    between atoms: _218  and  _219
REMARK   90  A    between atoms: _218  and  _221
REMARK   91  A    between atoms: _221  and  _222
REMARK   92  A    between atoms: _226  and  ZN_394
REMARK   93  A    between atoms: _229  and  _230
REMARK   94  A    between atoms: _229  and  _232
REMARK   95  A    between atoms: _232  and  _233
REMARK   96  A    between atoms: _233  and  _234
REMARK   97  A    between atoms: _237  and  _239
REMARK   98  A    between atoms: _239  and  _240
REMARK   99  A    between atoms: _239  and  _242
REMARK  100  A    between atoms: _242  and  _243
REMARK  101  A    between atoms: _246  and  _248
REMARK  102  A    between atoms: _248  and  _249
REMARK  103  A    between atoms: _248  and  _251
REMARK  104  A    between atoms: _251  and  _252
REMARK  105  A    between atoms: _256  and  ZN_394
REMARK  106  A    between atoms: _257  and  _259
REMARK  107  A    between atoms: _259  and  _260
REMARK  108  A    between atoms: _259  and  _262
REMARK  109  A    between atoms: _262  and  _263
REMARK  110  A    between atoms: _265  and  _267
REMARK  111  A    between atoms: _267  and  _268
REMARK  112  A    between atoms: _267  and  _270
REMARK  113  A    between atoms: _270  and  _271
REMARK  114  A    between atoms: _274  and  _276
REMARK  115  A    between atoms: _276  and  _277
REMARK  116  A    between atoms: _279  and  _281
REMARK  117  A    between atoms: _281  and  _282
REMARK  118  A    between atoms: _281  and  _284
REMARK  119  A    between atoms: _284  and  _285
REMARK  120  A    between atoms: _289  and  ZN_394
REMARK  121  A    between atoms: _290  and  _292
REMARK  122  A    between atoms: _292  and  _293
REMARK  123  A    between atoms: _296  and  _298
REMARK  124  A    between atoms: _298  and  _299
REMARK  125  A    between atoms: _298  and  _301
REMARK  126  A    between atoms: _304  and  _306
REMARK  127  A    between atoms: _306  and  _307
REMARK  128  A    between atoms: _306  and  _309
REMARK  129  A    between atoms: _309  and  _310
REMARK  130  A    between atoms: _310  and  _311
REMARK  131  A    between atoms: _313  and  _315
REMARK  132  A    between atoms: _315  and  _316
REMARK  133  A    between atoms: _315  and  _318
REMARK  134  A    between atoms: _318  and  _319
REMARK  135  A    between atoms: _326  and  _327
REMARK  136  A    between atoms: _332  and  _334
REMARK  137  A    between atoms: _334  and  _335
REMARK  138  A    between atoms: _334  and  _337
REMARK  139  A    between atoms: _337  and  _338
REMARK  140  A    between atoms: _341  and  _343
REMARK  141  A    between atoms: _343  and  _344
REMARK  142  A    between atoms: _343  and  _346
REMARK  143  A    between atoms: _346  and  _347
REMARK  144  A    between atoms: _352  and  _353
REMARK  145  A    between atoms: _355  and  _357
REMARK  146  A    between atoms: _357  and  _358
REMARK  147  A    between atoms: _357  and  _360
REMARK  148  A    between atoms: _360  and  _361
REMARK  149  A    between atoms: _361  and  _362
REMARK  150  A    between atoms: _362  and  _363
REMARK  151  A    between atoms: _363  and  _364
REMARK  152  A    between atoms: _368  and  _370
REMARK  153  A    between atoms: _370  and  _371
REMARK  154  A    between atoms: _370  and  _373
REMARK  155  A    between atoms: _373  and  _374
REMARK  156  A    between atoms: _379  and  _380
REMARK  157  A    between atoms: _382  and  _384
REMARK  158  A    between atoms: _384  and  _385
REMARK  159  A    between atoms: _384  and  _387
REMARK  160  A    between atoms: _387  and  _388
REMARK                            x       y       z     vdW  Elec       q    Type
REMARK                         _______ _______ _______ _____ _____    ______ ____
ROOT
ATOM      1  O   HOH     1       8.111  32.143   7.913  0.00  0.00    +0.000 OA
ENDROOT
TORSDOF 0
REMARK  Name = ../refined-set-2016/1rmz/1rmz_pocket.pdb
REMARK  160 active torsions:
REMARK  status: ('A' for Active; 'I' for Inactive)
REMARK    1  A    between atoms: _1  and  _3
REMARK    2  A    between atoms: _3  and  _4
REMARK    3  A    between atoms: _3  and  _6
REMARK    4  A    between atoms: _6  and  _7
REMARK    5  A    between atoms: _13  and  _15
REMARK    6  A    between atoms: _15  and  _16
REMARK    7  A    between atoms: _15  and  _18
REMARK    8  A    between atoms: _18  and  _19
REMARK    9  A    between atoms: _22  and  _24
REMARK   10  A    between atoms: _24  and  _25
REMARK   11  A    between atoms: _27  and  _29
REMARK   12  A    between atoms: _29  and  _30
REMARK   13  A    between atoms: _32  and  _34
REMARK   14  A    between atoms: _34  and  _35
REMARK   15  A    between atoms: _34  and  _37
REMARK   16  A    between atoms: _35  and  _36
REMARK   17  A    between atoms: _35  and  _41
REMARK   18  A    between atoms: _36  and  CA_395
REMARK   19  A    between atoms: _37  and  _38
REMARK   20  A    between atoms: _41  and  _43
REMARK   21  A    between atoms: _43  and  _44
REMARK   22  A    between atoms: _43  and  _46
REMARK   23  A    between atoms: _46  and  _47
REMARK   24  A    between atoms: _50  and  _52
REMARK   25  A    between atoms: _52  and  _53
REMARK   26  A    between atoms: _56  and  _58
REMARK   27  A    between atoms: _58  and  _59
REMARK   28  A    between atoms: _58  and  _61
REMARK   29  A    between atoms: _61  and  _62
REMARK   30  A    between atoms: _67  and  _69
REMARK   31  A    between atoms: _69  and  _70
REMARK   32  A    between atoms: _73  and  _75
REMARK   33  A    between atoms: _75  and  _76
REMARK   34  A    between atoms: _75  and  _78
REMARK   35  A    between atoms: _78  and  _79
REMARK   36  A    between atoms: _85  and  _87
REMARK   37  A    between atoms: _87  and  _88
REMARK   38  A    between atoms: _87  and  _90
REMARK   39  A    between atoms: _90  and  _91
REMARK   40  A    between atoms: _96  and  _98
REMARK   41  A    between atoms: _98  and  _99
REMARK   42  A    between atoms: _98  and  _101
REMARK   43  A    between atoms: _101  and  _102
REMARK   44  A    between atoms: _108  and  _110
REMARK   45  A    between atoms: _110  and  _111
REMARK   46  A    between atoms: _110  and  _113
REMARK   47  A    between atoms: _113  and  _114
REMARK   48  A    between atoms: _117  and  _119
REMARK   49  A    between atoms: _119  and  _120
REMARK   50  A    between atoms: _119  and  _122
REMARK   51  A    between atoms: _122  and  _123
REMARK   52  A    between atoms: _123  and  _124
REMARK   53  A    between atoms: _124  and  _126
REMARK   54  A    between atoms: _126  and  CA_395
REMARK   55  A    between atoms: _127  and  _129
REMARK   56  A    between atoms: _129  and  _130
REMARK   57  A    between atoms: _129  and  _132
REMARK   58  A    between atoms: _132  and  _133
REMARK   59  A    between atoms: _143  and  _145
REMARK   60  A    between atoms: _145  and  _146
REMARK   61  A    between atoms: _145  and  _148
REMARK   62  A    between atoms: _148  and  _149
REMARK   63  A    between atoms: _152  and  _154
REMARK   64  A    between atoms: _154  and  _155
REMARK   65  A    between atoms: _154  and  _157
REMARK   66  A    between atoms: _157  and  _158
REMARK   67  A    between atoms: _163  and  _165
REMARK   68  A    between atoms: _165  and  _166
REMARK   69  A    between atoms: _165  and  _168
REMARK   70  A    between atoms: _168  and  _169
REMARK   71  A    between atoms: _172  and  _174
REMARK   72  A    between atoms: _174  and  _175
REMARK   73  A    between atoms: _174  and  _177
REMARK   74  A    between atoms: _177  and  _178
REMARK   75  A    between atoms: _184  and  _186
REMARK   76  A    between atoms: _186  and  _187
REMARK   77  A    between atoms: _186  and  _189
REMARK   78  A    between atoms: _189  and  _190
REMARK   79  A    between atoms: _193  and  _195
REMARK   80  A    between atoms: _195  and  _196
REMARK   81  A    between atoms: _195  and  _198
REMARK   82  A    between atoms: _198  and  _199
REMARK   83  A    between atoms: _202  and  _204
REMARK   84  A    between atoms: _204  and  _205
REMARK   85  A    between atoms: _208  and  _210
REMARK   86  A    between atoms: _210  and  _211
REMARK   87  A    between atoms: _210  and  _213
REMARK   88  A    between atoms: _216  and  _218
REMARK   89  A    between atoms: _218  and  _219
REMARK   90  A    between atoms: _218  and  _221
REMARK   91  A    between atoms: _221  and  _222
REMARK   92  A    between atoms: _226  and  ZN_394
REMARK   93  A    between atoms: _229  and  _230
REMARK   94  A    between atoms: _229  and  _232
REMARK   95  A    between atoms: _232  and  _233
REMARK   96  A    between atoms: _233  and  _234
REMARK   97  A    between atoms: _237  and  _239
REMARK   98  A    between atoms: _239  and  _240
REMARK   99  A    between atoms: _239  and  _242
REMARK  100  A    between atoms: _242  and  _243
REMARK  101  A    between atoms: _246  and  _248
REMARK  102  A    between atoms: _248  and  _249
REMARK  103  A    between atoms: _248  and  _251
REMARK  104  A    between atoms: _251  and  _252
REMARK  105  A    between atoms: _256  and  ZN_394
REMARK  106  A    between atoms: _257  and  _259
REMARK  107  A    between atoms: _259  and  _260
REMARK  108  A    between atoms: _259  and  _262
REMARK  109  A    between atoms: _262  and  _263
REMARK  110  A    between atoms: _265  and  _267
REMARK  111  A    between atoms: _267  and  _268
REMARK  112  A    between atoms: _267  and  _270
REMARK  113  A    between atoms: _270  and  _271
REMARK  114  A    between atoms: _274  and  _276
REMARK  115  A    between atoms: _276  and  _277
REMARK  116  A    between atoms: _279  and  _281
REMARK  117  A    between atoms: _281  and  _282
REMARK  118  A    between atoms: _281  and  _284
REMARK  119  A    between atoms: _284  and  _285
REMARK  120  A    between atoms: _289  and  ZN_394
REMARK  121  A    between atoms: _290  and  _292
REMARK  122  A    between atoms: _292  and  _293
REMARK  123  A    between atoms: _296  and  _298
REMARK  124  A    between atoms: _298  and  _299
REMARK  125  A    between atoms: _298  and  _301
REMARK  126  A    between atoms: _304  and  _306
REMARK  127  A    between atoms: _306  and  _307
REMARK  128  A    between atoms: _306  and  _309
REMARK  129  A    between atoms: _309  and  _310
REMARK  130  A    between atoms: _310  and  _311
REMARK  131  A    between atoms: _313  and  _315
REMARK  132  A    between atoms: _315  and  _316
REMARK  133  A    between atoms: _315  and  _318
REMARK  134  A    between atoms: _318  and  _319
REMARK  135  A    between atoms: _326  and  _327
REMARK  136  A    between atoms: _332  and  _334
REMARK  137  A    between atoms: _334  and  _335
REMARK  138  A    between atoms: _334  and  _337
REMARK  139  A    between atoms: _337  and  _338
REMARK  140  A    between atoms: _341  and  _343
REMARK  141  A    between atoms: _343  and  _344
REMARK  142  A    between atoms: _343  and  _346
REMARK  143  A    between atoms: _346  and  _347
REMARK  144  A    between atoms: _352  and  _353
REMARK  145  A    between atoms: _355  and  _357
REMARK  146  A    between atoms: _357  and  _358
REMARK  147  A    between atoms: _357  and  _360
REMARK  148  A    between atoms: _360  and  _361
REMARK  149  A    between atoms: _361  and  _362
REMARK  150  A    between atoms: _362  and  _363
REMARK  151  A    between atoms: _363  and  _364
REMARK  152  A    between atoms: _368  and  _370
REMARK  153  A    between atoms: _370  and  _371
REMARK  154  A    between atoms: _370  and  _373
REMARK  155  A    between atoms: _373  and  _374
REMARK  156  A    between atoms: _379  and  _380
REMARK  157  A    between atoms: _382  and  _384
REMARK  158  A    between atoms: _384  and  _385
REMARK  159  A    between atoms: _384  and  _387
REMARK  160  A    between atoms: _387  and  _388
REMARK                            x       y       z     vdW  Elec       q    Type
REMARK                         _______ _______ _______ _____ _____    ______ ____
ROOT
ATOM      1  O   HOH     1       3.187  28.576  -5.996  0.00  0.00    +0.000 OA
ENDROOT
TORSDOF 0
REMARK  Name = ../refined-set-2016/1rmz/1rmz_pocket.pdb
REMARK  160 active torsions:
REMARK  status: ('A' for Active; 'I' for Inactive)
REMARK    1  A    between atoms: _1  and  _3
REMARK    2  A    between atoms: _3  and  _4
REMARK    3  A    between atoms: _3  and  _6
REMARK    4  A    between atoms: _6  and  _7
REMARK    5  A    between atoms: _13  and  _15
REMARK    6  A    between atoms: _15  and  _16
REMARK    7  A    between atoms: _15  and  _18
REMARK    8  A    between atoms: _18  and  _19
REMARK    9  A    between atoms: _22  and  _24
REMARK   10  A    between atoms: _24  and  _25
REMARK   11  A    between atoms: _27  and  _29
REMARK   12  A    between atoms: _29  and  _30
REMARK   13  A    between atoms: _32  and  _34
REMARK   14  A    between atoms: _34  and  _35
REMARK   15  A    between atoms: _34  and  _37
REMARK   16  A    between atoms: _35  and  _36
REMARK   17  A    between atoms: _35  and  _41
REMARK   18  A    between atoms: _36  and  CA_395
REMARK   19  A    between atoms: _37  and  _38
REMARK   20  A    between atoms: _41  and  _43
REMARK   21  A    between atoms: _43  and  _44
REMARK   22  A    between atoms: _43  and  _46
REMARK   23  A    between atoms: _46  and  _47
REMARK   24  A    between atoms: _50  and  _52
REMARK   25  A    between atoms: _52  and  _53
REMARK   26  A    between atoms: _56  and  _58
REMARK   27  A    between atoms: _58  and  _59
REMARK   28  A    between atoms: _58  and  _61
REMARK   29  A    between atoms: _61  and  _62
REMARK   30  A    between atoms: _67  and  _69
REMARK   31  A    between atoms: _69  and  _70
REMARK   32  A    between atoms: _73  and  _75
REMARK   33  A    between atoms: _75  and  _76
REMARK   34  A    between atoms: _75  and  _78
REMARK   35  A    between atoms: _78  and  _79
REMARK   36  A    between atoms: _85  and  _87
REMARK   37  A    between atoms: _87  and  _88
REMARK   38  A    between atoms: _87  and  _90
REMARK   39  A    between atoms: _90  and  _91
REMARK   40  A    between atoms: _96  and  _98
REMARK   41  A    between atoms: _98  and  _99
REMARK   42  A    between atoms: _98  and  _101
REMARK   43  A    between atoms: _101  and  _102
REMARK   44  A    between atoms: _108  and  _110
REMARK   45  A    between atoms: _110  and  _111
REMARK   46  A    between atoms: _110  and  _113
REMARK   47  A    between atoms: _113  and  _114
REMARK   48  A    between atoms: _117  and  _119
REMARK   49  A    between atoms: _119  and  _120
REMARK   50  A    between atoms: _119  and  _122
REMARK   51  A    between atoms: _122  and  _123
REMARK   52  A    between atoms: _123  and  _124
REMARK   53  A    between atoms: _124  and  _126
REMARK   54  A    between atoms: _126  and  CA_395
REMARK   55  A    between atoms: _127  and  _129
REMARK   56  A    between atoms: _129  and  _130
REMARK   57  A    between atoms: _129  and  _132
REMARK   58  A    between atoms: _132  and  _133
REMARK   59  A    between atoms: _143  and  _145
REMARK   60  A    between atoms: _145  and  _146
REMARK   61  A    between atoms: _145  and  _148
REMARK   62  A    between atoms: _148  and  _149
REMARK   63  A    between atoms: _152  and  _154
REMARK   64  A    between atoms: _154  and  _155
REMARK   65  A    between atoms: _154  and  _157
REMARK   66  A    between atoms: _157  and  _158
REMARK   67  A    between atoms: _163  and  _165
REMARK   68  A    between atoms: _165  and  _166
REMARK   69  A    between atoms: _165  and  _168
REMARK   70  A    between atoms: _168  and  _169
REMARK   71  A    between atoms: _172  and  _174
REMARK   72  A    between atoms: _174  and  _175
REMARK   73  A    between atoms: _174  and  _177
REMARK   74  A    between atoms: _177  and  _178
REMARK   75  A    between atoms: _184  and  _186
REMARK   76  A    between atoms: _186  and  _187
REMARK   77  A    between atoms: _186  and  _189
REMARK   78  A    between atoms: _189  and  _190
REMARK   79  A    between atoms: _193  and  _195
REMARK   80  A    between atoms: _195  and  _196
REMARK   81  A    between atoms: _195  and  _198
REMARK   82  A    between atoms: _198  and  _199
REMARK   83  A    between atoms: _202  and  _204
REMARK   84  A    between atoms: _204  and  _205
REMARK   85  A    between atoms: _208  and  _210
REMARK   86  A    between atoms: _210  and  _211
REMARK   87  A    between atoms: _210  and  _213
REMARK   88  A    between atoms: _216  and  _218
REMARK   89  A    between atoms: _218  and  _219
REMARK   90  A    between atoms: _218  and  _221
REMARK   91  A    between atoms: _221  and  _222
REMARK   92  A    between atoms: _226  and  ZN_394
REMARK   93  A    between atoms: _229  and  _230
REMARK   94  A    between atoms: _229  and  _232
REMARK   95  A    between atoms: _232  and  _233
REMARK   96  A    between atoms: _233  and  _234
REMARK   97  A    between atoms: _237  and  _239
REMARK   98  A    between atoms: _239  and  _240
REMARK   99  A    between atoms: _239  and  _242
REMARK  100  A    between atoms: _242  and  _243
REMARK  101  A    between atoms: _246  and  _248
REMARK  102  A    between atoms: _248  and  _249
REMARK  103  A    between atoms: _248  and  _251
REMARK  104  A    between atoms: _251  and  _252
REMARK  105  A    between atoms: _256  and  ZN_394
REMARK  106  A    between atoms: _257  and  _259
REMARK  107  A    between atoms: _259  and  _260
REMARK  108  A    between atoms: _259  and  _262
REMARK  109  A    between atoms: _262  and  _263
REMARK  110  A    between atoms: _265  and  _267
REMARK  111  A    between atoms: _267  and  _268
REMARK  112  A    between atoms: _267  and  _270
REMARK  113  A    between atoms: _270  and  _271
REMARK  114  A    between atoms: _274  and  _276
REMARK  115  A    between atoms: _276  and  _277
REMARK  116  A    between atoms: _279  and  _281
REMARK  117  A    between atoms: _281  and  _282
REMARK  118  A    between atoms: _281  and  _284
REMARK  119  A    between atoms: _284  and  _285
REMARK  120  A    between atoms: _289  and  ZN_394
REMARK  121  A    between atoms: _290  and  _292
REMARK  122  A    between atoms: _292  and  _293
REMARK  123  A    between atoms: _296  and  _298
REMARK  124  A    between atoms: _298  and  _299
REMARK  125  A    between atoms: _298  and  _301
REMARK  126  A    between atoms: _304  and  _306
REMARK  127  A    between atoms: _306  and  _307
REMARK  128  A    between atoms: _306  and  _309
REMARK  129  A    between atoms: _309  and  _310
REMARK  130  A    between atoms: _310  and  _311
REMARK  131  A    between atoms: _313  and  _315
REMARK  132  A    between atoms: _315  and  _316
REMARK  133  A    between atoms: _315  and  _318
REMARK  134  A    between atoms: _318  and  _319
REMARK  135  A    between atoms: _326  and  _327
REMARK  136  A    between atoms: _332  and  _334
REMARK  137  A    between atoms: _334  and  _335
REMARK  138  A    between atoms: _334  and  _337
REMARK  139  A    between atoms: _337  and  _338
REMARK  140  A    between atoms: _341  and  _343
REMARK  141  A    between atoms: _343  and  _344
REMARK  142  A    between atoms: _343  and  _346
REMARK  143  A    between atoms: _346  and  _347
REMARK  144  A    between atoms: _352  and  _353
REMARK  145  A    between atoms: _355  and  _357
REMARK  146  A    between atoms: _357  and  _358
REMARK  147  A    between atoms: _357  and  _360
REMARK  148  A    between atoms: _360  and  _361
REMARK  149  A    between atoms: _361  and  _362
REMARK  150  A    between atoms: _362  and  _363
REMARK  151  A    between atoms: _363  and  _364
REMARK  152  A    between atoms: _368  and  _370
REMARK  153  A    between atoms: _370  and  _371
REMARK  154  A    between atoms: _370  and  _373
REMARK  155  A    between atoms: _373  and  _374
REMARK  156  A    between atoms: _379  and  _380
REMARK  157  A    between atoms: _382  and  _384
REMARK  158  A    between atoms: _384  and  _385
REMARK  159  A    between atoms: _384  and  _387
REMARK  160  A    between atoms: _387  and  _388
REMARK                            x       y       z     vdW  Elec       q    Type
REMARK                         _______ _______ _______ _____ _____    ______ ____
ROOT
ATOM      1  O   HOH     1       6.608  29.880  -4.302  0.00  0.00    +0.000 OA
ENDROOT
TORSDOF 0
REMARK  Name = ../refined-set-2016/1rmz/1rmz_pocket.pdb
REMARK  160 active torsions:
REMARK  status: ('A' for Active; 'I' for Inactive)
REMARK    1  A    between atoms: _1  and  _3
REMARK    2  A    between atoms: _3  and  _4
REMARK    3  A    between atoms: _3  and  _6
REMARK    4  A    between atoms: _6  and  _7
REMARK    5  A    between atoms: _13  and  _15
REMARK    6  A    between atoms: _15  and  _16
REMARK    7  A    between atoms: _15  and  _18
REMARK    8  A    between atoms: _18  and  _19
REMARK    9  A    between atoms: _22  and  _24
REMARK   10  A    between atoms: _24  and  _25
REMARK   11  A    between atoms: _27  and  _29
REMARK   12  A    between atoms: _29  and  _30
REMARK   13  A    between atoms: _32  and  _34
REMARK   14  A    between atoms: _34  and  _35
REMARK   15  A    between atoms: _34  and  _37
REMARK   16  A    between atoms: _35  and  _36
REMARK   17  A    between atoms: _35  and  _41
REMARK   18  A    between atoms: _36  and  CA_395
REMARK   19  A    between atoms: _37  and  _38
REMARK   20  A    between atoms: _41  and  _43
REMARK   21  A    between atoms: _43  and  _44
REMARK   22  A    between atoms: _43  and  _46
REMARK   23  A    between atoms: _46  and  _47
REMARK   24  A    between atoms: _50  and  _52
REMARK   25  A    between atoms: _52  and  _53
REMARK   26  A    between atoms: _56  and  _58
REMARK   27  A    between atoms: _58  and  _59
REMARK   28  A    between atoms: _58  and  _61
REMARK   29  A    between atoms: _61  and  _62
REMARK   30  A    between atoms: _67  and  _69
REMARK   31  A    between atoms: _69  and  _70
REMARK   32  A    between atoms: _73  and  _75
REMARK   33  A    between atoms: _75  and  _76
REMARK   34  A    between atoms: _75  and  _78
REMARK   35  A    between atoms: _78  and  _79
REMARK   36  A    between atoms: _85  and  _87
REMARK   37  A    between atoms: _87  and  _88
REMARK   38  A    between atoms: _87  and  _90
REMARK   39  A    between atoms: _90  and  _91
REMARK   40  A    between atoms: _96  and  _98
REMARK   41  A    between atoms: _98  and  _99
REMARK   42  A    between atoms: _98  and  _101
REMARK   43  A    between atoms: _101  and  _102
REMARK   44  A    between atoms: _108  and  _110
REMARK   45  A    between atoms: _110  and  _111
REMARK   46  A    between atoms: _110  and  _113
REMARK   47  A    between atoms: _113  and  _114
REMARK   48  A    between atoms: _117  and  _119
REMARK   49  A    between atoms: _119  and  _120
REMARK   50  A    between atoms: _119  and  _122
REMARK   51  A    between atoms: _122  and  _123
REMARK   52  A    between atoms: _123  and  _124
REMARK   53  A    between atoms: _124  and  _126
REMARK   54  A    between atoms: _126  and  CA_395
REMARK   55  A    between atoms: _127  and  _129
REMARK   56  A    between atoms: _129  and  _130
REMARK   57  A    between atoms: _129  and  _132
REMARK   58  A    between atoms: _132  and  _133
REMARK   59  A    between atoms: _143  and  _145
REMARK   60  A    between atoms: _145  and  _146
REMARK   61  A    between atoms: _145  and  _148
REMARK   62  A    between atoms: _148  and  _149
REMARK   63  A    between atoms: _152  and  _154
REMARK   64  A    between atoms: _154  and  _155
REMARK   65  A    between atoms: _154  and  _157
REMARK   66  A    between atoms: _157  and  _158
REMARK   67  A    between atoms: _163  and  _165
REMARK   68  A    between atoms: _165  and  _166
REMARK   69  A    between atoms: _165  and  _168
REMARK   70  A    between atoms: _168  and  _169
REMARK   71  A    between atoms: _172  and  _174
REMARK   72  A    between atoms: _174  and  _175
REMARK   73  A    between atoms: _174  and  _177
REMARK   74  A    between atoms: _177  and  _178
REMARK   75  A    between atoms: _184  and  _186
REMARK   76  A    between atoms: _186  and  _187
REMARK   77  A    between atoms: _186  and  _189
REMARK   78  A    between atoms: _189  and  _190
REMARK   79  A    between atoms: _193  and  _195
REMARK   80  A    between atoms: _195  and  _196
REMARK   81  A    between atoms: _195  and  _198
REMARK   82  A    between atoms: _198  and  _199
REMARK   83  A    between atoms: _202  and  _204
REMARK   84  A    between atoms: _204  and  _205
REMARK   85  A    between atoms: _208  and  _210
REMARK   86  A    between atoms: _210  and  _211
REMARK   87  A    between atoms: _210  and  _213
REMARK   88  A    between atoms: _216  and  _218
REMARK   89  A    between atoms: _218  and  _219
REMARK   90  A    between atoms: _218  and  _221
REMARK   91  A    between atoms: _221  and  _222
REMARK   92  A    between atoms: _226  and  ZN_394
REMARK   93  A    between atoms: _229  and  _230
REMARK   94  A    between atoms: _229  and  _232
REMARK   95  A    between atoms: _232  and  _233
REMARK   96  A    between atoms: _233  and  _234
REMARK   97  A    between atoms: _237  and  _239
REMARK   98  A    between atoms: _239  and  _240
REMARK   99  A    between atoms: _239  and  _242
REMARK  100  A    between atoms: _242  and  _243
REMARK  101  A    between atoms: _246  and  _248
REMARK  102  A    between atoms: _248  and  _249
REMARK  103  A    between atoms: _248  and  _251
REMARK  104  A    between atoms: _251  and  _252
REMARK  105  A    between atoms: _256  and  ZN_394
REMARK  106  A    between atoms: _257  and  _259
REMARK  107  A    between atoms: _259  and  _260
REMARK  108  A    between atoms: _259  and  _262
REMARK  109  A    between atoms: _262  and  _263
REMARK  110  A    between atoms: _265  and  _267
REMARK  111  A    between atoms: _267  and  _268
REMARK  112  A    between atoms: _267  and  _270
REMARK  113  A    between atoms: _270  and  _271
REMARK  114  A    between atoms: _274  and  _276
REMARK  115  A    between atoms: _276  and  _277
REMARK  116  A    between atoms: _279  and  _281
REMARK  117  A    between atoms: _281  and  _282
REMARK  118  A    between atoms: _281  and  _284
REMARK  119  A    between atoms: _284  and  _285
REMARK  120  A    between atoms: _289  and  ZN_394
REMARK  121  A    between atoms: _290  and  _292
REMARK  122  A    between atoms: _292  and  _293
REMARK  123  A    between atoms: _296  and  _298
REMARK  124  A    between atoms: _298  and  _299
REMARK  125  A    between atoms: _298  and  _301
REMARK  126  A    between atoms: _304  and  _306
REMARK  127  A    between atoms: _306  and  _307
REMARK  128  A    between atoms: _306  and  _309
REMARK  129  A    between atoms: _309  and  _310
REMARK  130  A    between atoms: _310  and  _311
REMARK  131  A    between atoms: _313  and  _315
REMARK  132  A    between atoms: _315  and  _316
REMARK  133  A    between atoms: _315  and  _318
REMARK  134  A    between atoms: _318  and  _319
REMARK  135  A    between atoms: _326  and  _327
REMARK  136  A    between atoms: _332  and  _334
REMARK  137  A    between atoms: _334  and  _335
REMARK  138  A    between atoms: _334  and  _337
REMARK  139  A    between atoms: _337  and  _338
REMARK  140  A    between atoms: _341  and  _343
REMARK  141  A    between atoms: _343  and  _344
REMARK  142  A    between atoms: _343  and  _346
REMARK  143  A    between atoms: _346  and  _347
REMARK  144  A    between atoms: _352  and  _353
REMARK  145  A    between atoms: _355  and  _357
REMARK  146  A    between atoms: _357  and  _358
REMARK  147  A    between atoms: _357  and  _360
REMARK  148  A    between atoms: _360  and  _361
REMARK  149  A    between atoms: _361  and  _362
REMARK  150  A    between atoms: _362  and  _363
REMARK  151  A    between atoms: _363  and  _364
REMARK  152  A    between atoms: _368  and  _370
REMARK  153  A    between atoms: _370  and  _371
REMARK  154  A    between atoms: _370  and  _373
REMARK  155  A    between atoms: _373  and  _374
REMARK  156  A    between atoms: _379  and  _380
REMARK  157  A    between atoms: _382  and  _384
REMARK  158  A    between atoms: _384  and  _385
REMARK  159  A    between atoms: _384  and  _387
REMARK  160  A    between atoms: _387  and  _388
REMARK                            x       y       z     vdW  Elec       q    Type
REMARK                         _______ _______ _______ _____ _____    ______ ____
ROOT
ATOM      1  O   HOH     1       5.006  28.996  10.591  0.00  0.00    +0.000 OA
ENDROOT
TORSDOF 0
REMARK  Name = ../refined-set-2016/1rmz/1rmz_pocket.pdb
REMARK  160 active torsions:
REMARK  status: ('A' for Active; 'I' for Inactive)
REMARK    1  A    between atoms: _1  and  _3
REMARK    2  A    between atoms: _3  and  _4
REMARK    3  A    between atoms: _3  and  _6
REMARK    4  A    between atoms: _6  and  _7
REMARK    5  A    between atoms: _13  and  _15
REMARK    6  A    between atoms: _15  and  _16
REMARK    7  A    between atoms: _15  and  _18
REMARK    8  A    between atoms: _18  and  _19
REMARK    9  A    between atoms: _22  and  _24
REMARK   10  A    between atoms: _24  and  _25
REMARK   11  A    between atoms: _27  and  _29
REMARK   12  A    between atoms: _29  and  _30
REMARK   13  A    between atoms: _32  and  _34
REMARK   14  A    between atoms: _34  and  _35
REMARK   15  A    between atoms: _34  and  _37
REMARK   16  A    between atoms: _35  and  _36
REMARK   17  A    between atoms: _35  and  _41
REMARK   18  A    between atoms: _36  and  CA_395
REMARK   19  A    between atoms: _37  and  _38
REMARK   20  A    between atoms: _41  and  _43
REMARK   21  A    between atoms: _43  and  _44
REMARK   22  A    between atoms: _43  and  _46
REMARK   23  A    between atoms: _46  and  _47
REMARK   24  A    between atoms: _50  and  _52
REMARK   25  A    between atoms: _52  and  _53
REMARK   26  A    between atoms: _56  and  _58
REMARK   27  A    between atoms: _58  and  _59
REMARK   28  A    between atoms: _58  and  _61
REMARK   29  A    between atoms: _61  and  _62
REMARK   30  A    between atoms: _67  and  _69
REMARK   31  A    between atoms: _69  and  _70
REMARK   32  A    between atoms: _73  and  _75
REMARK   33  A    between atoms: _75  and  _76
REMARK   34  A    between atoms: _75  and  _78
REMARK   35  A    between atoms: _78  and  _79
REMARK   36  A    between atoms: _85  and  _87
REMARK   37  A    between atoms: _87  and  _88
REMARK   38  A    between atoms: _87  and  _90
REMARK   39  A    between atoms: _90  and  _91
REMARK   40  A    between atoms: _96  and  _98
REMARK   41  A    between atoms: _98  and  _99
REMARK   42  A    between atoms: _98  and  _101
REMARK   43  A    between atoms: _101  and  _102
REMARK   44  A    between atoms: _108  and  _110
REMARK   45  A    between atoms: _110  and  _111
REMARK   46  A    between atoms: _110  and  _113
REMARK   47  A    between atoms: _113  and  _114
REMARK   48  A    between atoms: _117  and  _119
REMARK   49  A    between atoms: _119  and  _120
REMARK   50  A    between atoms: _119  and  _122
REMARK   51  A    between atoms: _122  and  _123
REMARK   52  A    between atoms: _123  and  _124
REMARK   53  A    between atoms: _124  and  _126
REMARK   54  A    between atoms: _126  and  CA_395
REMARK   55  A    between atoms: _127  and  _129
REMARK   56  A    between atoms: _129  and  _130
REMARK   57  A    between atoms: _129  and  _132
REMARK   58  A    between atoms: _132  and  _133
REMARK   59  A    between atoms: _143  and  _145
REMARK   60  A    between atoms: _145  and  _146
REMARK   61  A    between atoms: _145  and  _148
REMARK   62  A    between atoms: _148  and  _149
REMARK   63  A    between atoms: _152  and  _154
REMARK   64  A    between atoms: _154  and  _155
REMARK   65  A    between atoms: _154  and  _157
REMARK   66  A    between atoms: _157  and  _158
REMARK   67  A    between atoms: _163  and  _165
REMARK   68  A    between atoms: _165  and  _166
REMARK   69  A    between atoms: _165  and  _168
REMARK   70  A    between atoms: _168  and  _169
REMARK   71  A    between atoms: _172  and  _174
REMARK   72  A    between atoms: _174  and  _175
REMARK   73  A    between atoms: _174  and  _177
REMARK   74  A    between atoms: _177  and  _178
REMARK   75  A    between atoms: _184  and  _186
REMARK   76  A    between atoms: _186  and  _187
REMARK   77  A    between atoms: _186  and  _189
REMARK   78  A    between atoms: _189  and  _190
REMARK   79  A    between atoms: _193  and  _195
REMARK   80  A    between atoms: _195  and  _196
REMARK   81  A    between atoms: _195  and  _198
REMARK   82  A    between atoms: _198  and  _199
REMARK   83  A    between atoms: _202  and  _204
REMARK   84  A    between atoms: _204  and  _205
REMARK   85  A    between atoms: _208  and  _210
REMARK   86  A    between atoms: _210  and  _211
REMARK   87  A    between atoms: _210  and  _213
REMARK   88  A    between atoms: _216  and  _218
REMARK   89  A    between atoms: _218  and  _219
REMARK   90  A    between atoms: _218  and  _221
REMARK   91  A    between atoms: _221  and  _222
REMARK   92  A    between atoms: _226  and  ZN_394
REMARK   93  A    between atoms: _229  and  _230
REMARK   94  A    between atoms: _229  and  _232
REMARK   95  A    between atoms: _232  and  _233
REMARK   96  A    between atoms: _233  and  _234
REMARK   97  A    between atoms: _237  and  _239
REMARK   98  A    between atoms: _239  and  _240
REMARK   99  A    between atoms: _239  and  _242
REMARK  100  A    between atoms: _242  and  _243
REMARK  101  A    between atoms: _246  and  _248
REMARK  102  A    between atoms: _248  and  _249
REMARK  103  A    between atoms: _248  and  _251
REMARK  104  A    between atoms: _251  and  _252
REMARK  105  A    between atoms: _256  and  ZN_394
REMARK  106  A    between atoms: _257  and  _259
REMARK  107  A    between atoms: _259  and  _260
REMARK  108  A    between atoms: _259  and  _262
REMARK  109  A    between atoms: _262  and  _263
REMARK  110  A    between atoms: _265  and  _267
REMARK  111  A    between atoms: _267  and  _268
REMARK  112  A    between atoms: _267  and  _270
REMARK  113  A    between atoms: _270  and  _271
REMARK  114  A    between atoms: _274  and  _276
REMARK  115  A    between atoms: _276  and  _277
REMARK  116  A    between atoms: _279  and  _281
REMARK  117  A    between atoms: _281  and  _282
REMARK  118  A    between atoms: _281  and  _284
REMARK  119  A    between atoms: _284  and  _285
REMARK  120  A    between atoms: _289  and  ZN_394
REMARK  121  A    between atoms: _290  and  _292
REMARK  122  A    between atoms: _292  and  _293
REMARK  123  A    between atoms: _296  and  _298
REMARK  124  A    between atoms: _298  and  _299
REMARK  125  A    between atoms: _298  and  _301
REMARK  126  A    between atoms: _304  and  _306
REMARK  127  A    between atoms: _306  and  _307
REMARK  128  A    between atoms: _306  and  _309
REMARK  129  A    between atoms: _309  and  _310
REMARK  130  A    between atoms: _310  and  _311
REMARK  131  A    between atoms: _313  and  _315
REMARK  132  A    between atoms: _315  and  _316
REMARK  133  A    between atoms: _315  and  _318
REMARK  134  A    between atoms: _318  and  _319
REMARK  135  A    between atoms: _326  and  _327
REMARK  136  A    between atoms: _332  and  _334
REMARK  137  A    between atoms: _334  and  _335
REMARK  138  A    between atoms: _334  and  _337
REMARK  139  A    between atoms: _337  and  _338
REMARK  140  A    between atoms: _341  and  _343
REMARK  141  A    between atoms: _343  and  _344
REMARK  142  A    between atoms: _343  and  _346
REMARK  143  A    between atoms: _346  and  _347
REMARK  144  A    between atoms: _352  and  _353
REMARK  145  A    between atoms: _355  and  _357
REMARK  146  A    between atoms: _357  and  _358
REMARK  147  A    between atoms: _357  and  _360
REMARK  148  A    between atoms: _360  and  _361
REMARK  149  A    between atoms: _361  and  _362
REMARK  150  A    between atoms: _362  and  _363
REMARK  151  A    between atoms: _363  and  _364
REMARK  152  A    between atoms: _368  and  _370
REMARK  153  A    between atoms: _370  and  _371
REMARK  154  A    between atoms: _370  and  _373
REMARK  155  A    between atoms: _373  and  _374
REMARK  156  A    between atoms: _379  and  _380
REMARK  157  A    between atoms: _382  and  _384
REMARK  158  A    between atoms: _384  and  _385
REMARK  159  A    between atoms: _384  and  _387
REMARK  160  A    between atoms: _387  and  _388
REMARK                            x       y       z     vdW  Elec       q    Type
REMARK                         _______ _______ _______ _____ _____    ______ ____
ROOT
ATOM      1  O   HOH     1       5.829  28.595   7.388  0.00  0.00    +0.000 OA
ENDROOT
TORSDOF 0
REMARK  Name = ../refined-set-2016/1rmz/1rmz_pocket.pdb
REMARK  160 active torsions:
REMARK  status: ('A' for Active; 'I' for Inactive)
REMARK    1  A    between atoms: _1  and  _3
REMARK    2  A    between atoms: _3  and  _4
REMARK    3  A    between atoms: _3  and  _6
REMARK    4  A    between atoms: _6  and  _7
REMARK    5  A    between atoms: _13  and  _15
REMARK    6  A    between atoms: _15  and  _16
REMARK    7  A    between atoms: _15  and  _18
REMARK    8  A    between atoms: _18  and  _19
REMARK    9  A    between atoms: _22  and  _24
REMARK   10  A    between atoms: _24  and  _25
REMARK   11  A    between atoms: _27  and  _29
REMARK   12  A    between atoms: _29  and  _30
REMARK   13  A    between atoms: _32  and  _34
REMARK   14  A    between atoms: _34  and  _35
REMARK   15  A    between atoms: _34  and  _37
REMARK   16  A    between atoms: _35  and  _36
REMARK   17  A    between atoms: _35  and  _41
REMARK   18  A    between atoms: _36  and  CA_395
REMARK   19  A    between atoms: _37  and  _38
REMARK   20  A    between atoms: _41  and  _43
REMARK   21  A    between atoms: _43  and  _44
REMARK   22  A    between atoms: _43  and  _46
REMARK   23  A    between atoms: _46  and  _47
REMARK   24  A    between atoms: _50  and  _52
REMARK   25  A    between atoms: _52  and  _53
REMARK   26  A    between atoms: _56  and  _58
REMARK   27  A    between atoms: _58  and  _59
REMARK   28  A    between atoms: _58  and  _61
REMARK   29  A    between atoms: _61  and  _62
REMARK   30  A    between atoms: _67  and  _69
REMARK   31  A    between atoms: _69  and  _70
REMARK   32  A    between atoms: _73  and  _75
REMARK   33  A    between atoms: _75  and  _76
REMARK   34  A    between atoms: _75  and  _78
REMARK   35  A    between atoms: _78  and  _79
REMARK   36  A    between atoms: _85  and  _87
REMARK   37  A    between atoms: _87  and  _88
REMARK   38  A    between atoms: _87  and  _90
REMARK   39  A    between atoms: _90  and  _91
REMARK   40  A    between atoms: _96  and  _98
REMARK   41  A    between atoms: _98  and  _99
REMARK   42  A    between atoms: _98  and  _101
REMARK   43  A    between atoms: _101  and  _102
REMARK   44  A    between atoms: _108  and  _110
REMARK   45  A    between atoms: _110  and  _111
REMARK   46  A    between atoms: _110  and  _113
REMARK   47  A    between atoms: _113  and  _114
REMARK   48  A    between atoms: _117  and  _119
REMARK   49  A    between atoms: _119  and  _120
REMARK   50  A    between atoms: _119  and  _122
REMARK   51  A    between atoms: _122  and  _123
REMARK   52  A    between atoms: _123  and  _124
REMARK   53  A    between atoms: _124  and  _126
REMARK   54  A    between atoms: _126  and  CA_395
REMARK   55  A    between atoms: _127  and  _129
REMARK   56  A    between atoms: _129  and  _130
REMARK   57  A    between atoms: _129  and  _132
REMARK   58  A    between atoms: _132  and  _133
REMARK   59  A    between atoms: _143  and  _145
REMARK   60  A    between atoms: _145  and  _146
REMARK   61  A    between atoms: _145  and  _148
REMARK   62  A    between atoms: _148  and  _149
REMARK   63  A    between atoms: _152  and  _154
REMARK   64  A    between atoms: _154  and  _155
REMARK   65  A    between atoms: _154  and  _157
REMARK   66  A    between atoms: _157  and  _158
REMARK   67  A    between atoms: _163  and  _165
REMARK   68  A    between atoms: _165  and  _166
REMARK   69  A    between atoms: _165  and  _168
REMARK   70  A    between atoms: _168  and  _169
REMARK   71  A    between atoms: _172  and  _174
REMARK   72  A    between atoms: _174  and  _175
REMARK   73  A    between atoms: _174  and  _177
REMARK   74  A    between atoms: _177  and  _178
REMARK   75  A    between atoms: _184  and  _186
REMARK   76  A    between atoms: _186  and  _187
REMARK   77  A    between atoms: _186  and  _189
REMARK   78  A    between atoms: _189  and  _190
REMARK   79  A    between atoms: _193  and  _195
REMARK   80  A    between atoms: _195  and  _196
REMARK   81  A    between atoms: _195  and  _198
REMARK   82  A    between atoms: _198  and  _199
REMARK   83  A    between atoms: _202  and  _204
REMARK   84  A    between atoms: _204  and  _205
REMARK   85  A    between atoms: _208  and  _210
REMARK   86  A    between atoms: _210  and  _211
REMARK   87  A    between atoms: _210  and  _213
REMARK   88  A    between atoms: _216  and  _218
REMARK   89  A    between atoms: _218  and  _219
REMARK   90  A    between atoms: _218  and  _221
REMARK   91  A    between atoms: _221  and  _222
REMARK   92  A    between atoms: _226  and  ZN_394
REMARK   93  A    between atoms: _229  and  _230
REMARK   94  A    between atoms: _229  and  _232
REMARK   95  A    between atoms: _232  and  _233
REMARK   96  A    between atoms: _233  and  _234
REMARK   97  A    between atoms: _237  and  _239
REMARK   98  A    between atoms: _239  and  _240
REMARK   99  A    between atoms: _239  and  _242
REMARK  100  A    between atoms: _242  and  _243
REMARK  101  A    between atoms: _246  and  _248
REMARK  102  A    between atoms: _248  and  _249
REMARK  103  A    between atoms: _248  and  _251
REMARK  104  A    between atoms: _251  and  _252
REMARK  105  A    between atoms: _256  and  ZN_394
REMARK  106  A    between atoms: _257  and  _259
REMARK  107  A    between atoms: _259  and  _260
REMARK  108  A    between atoms: _259  and  _262
REMARK  109  A    between atoms: _262  and  _263
REMARK  110  A    between atoms: _265  and  _267
REMARK  111  A    between atoms: _267  and  _268
REMARK  112  A    between atoms: _267  and  _270
REMARK  113  A    between atoms: _270  and  _271
REMARK  114  A    between atoms: _274  and  _276
REMARK  115  A    between atoms: _276  and  _277
REMARK  116  A    between atoms: _279  and  _281
REMARK  117  A    between atoms: _281  and  _282
REMARK  118  A    between atoms: _281  and  _284
REMARK  119  A    between atoms: _284  and  _285
REMARK  120  A    between atoms: _289  and  ZN_394
REMARK  121  A    between atoms: _290  and  _292
REMARK  122  A    between atoms: _292  and  _293
REMARK  123  A    between atoms: _296  and  _298
REMARK  124  A    between atoms: _298  and  _299
REMARK  125  A    between atoms: _298  and  _301
REMARK  126  A    between atoms: _304  and  _306
REMARK  127  A    between atoms: _306  and  _307
REMARK  128  A    between atoms: _306  and  _309
REMARK  129  A    between atoms: _309  and  _310
REMARK  130  A    between atoms: _310  and  _311
REMARK  131  A    between atoms: _313  and  _315
REMARK  132  A    between atoms: _315  and  _316
REMARK  133  A    between atoms: _315  and  _318
REMARK  134  A    between atoms: _318  and  _319
REMARK  135  A    between atoms: _326  and  _327
REMARK  136  A    between atoms: _332  and  _334
REMARK  137  A    between atoms: _334  and  _335
REMARK  138  A    between atoms: _334  and  _337
REMARK  139  A    between atoms: _337  and  _338
REMARK  140  A    between atoms: _341  and  _343
REMARK  141  A    between atoms: _343  and  _344
REMARK  142  A    between atoms: _343  and  _346
REMARK  143  A    between atoms: _346  and  _347
REMARK  144  A    between atoms: _352  and  _353
REMARK  145  A    between atoms: _355  and  _357
REMARK  146  A    between atoms: _357  and  _358
REMARK  147  A    between atoms: _357  and  _360
REMARK  148  A    between atoms: _360  and  _361
REMARK  149  A    between atoms: _361  and  _362
REMARK  150  A    between atoms: _362  and  _363
REMARK  151  A    between atoms: _363  and  _364
REMARK  152  A    between atoms: _368  and  _370
REMARK  153  A    between atoms: _370  and  _371
REMARK  154  A    between atoms: _370  and  _373
REMARK  155  A    between atoms: _373  and  _374
REMARK  156  A    between atoms: _379  and  _380
REMARK  157  A    between atoms: _382  and  _384
REMARK  158  A    between atoms: _384  and  _385
REMARK  159  A    between atoms: _384  and  _387
REMARK  160  A    between atoms: _387  and  _388
REMARK                            x       y       z     vdW  Elec       q    Type
REMARK                         _______ _______ _______ _____ _____    ______ ____
ROOT
ATOM      1  O   HOH     1       9.939  24.690  -5.732  0.00  0.00    +0.000 OA
ENDROOT
TORSDOF 0
REMARK  Name = ../refined-set-2016/1rmz/1rmz_pocket.pdb
REMARK  160 active torsions:
REMARK  status: ('A' for Active; 'I' for Inactive)
REMARK    1  A    between atoms: _1  and  _3
REMARK    2  A    between atoms: _3  and  _4
REMARK    3  A    between atoms: _3  and  _6
REMARK    4  A    between atoms: _6  and  _7
REMARK    5  A    between atoms: _13  and  _15
REMARK    6  A    between atoms: _15  and  _16
REMARK    7  A    between atoms: _15  and  _18
REMARK    8  A    between atoms: _18  and  _19
REMARK    9  A    between atoms: _22  and  _24
REMARK   10  A    between atoms: _24  and  _25
REMARK   11  A    between atoms: _27  and  _29
REMARK   12  A    between atoms: _29  and  _30
REMARK   13  A    between atoms: _32  and  _34
REMARK   14  A    between atoms: _34  and  _35
REMARK   15  A    between atoms: _34  and  _37
REMARK   16  A    between atoms: _35  and  _36
REMARK   17  A    between atoms: _35  and  _41
REMARK   18  A    between atoms: _36  and  CA_395
REMARK   19  A    between atoms: _37  and  _38
REMARK   20  A    between atoms: _41  and  _43
REMARK   21  A    between atoms: _43  and  _44
REMARK   22  A    between atoms: _43  and  _46
REMARK   23  A    between atoms: _46  and  _47
REMARK   24  A    between atoms: _50  and  _52
REMARK   25  A    between atoms: _52  and  _53
REMARK   26  A    between atoms: _56  and  _58
REMARK   27  A    between atoms: _58  and  _59
REMARK   28  A    between atoms: _58  and  _61
REMARK   29  A    between atoms: _61  and  _62
REMARK   30  A    between atoms: _67  and  _69
REMARK   31  A    between atoms: _69  and  _70
REMARK   32  A    between atoms: _73  and  _75
REMARK   33  A    between atoms: _75  and  _76
REMARK   34  A    between atoms: _75  and  _78
REMARK   35  A    between atoms: _78  and  _79
REMARK   36  A    between atoms: _85  and  _87
REMARK   37  A    between atoms: _87  and  _88
REMARK   38  A    between atoms: _87  and  _90
REMARK   39  A    between atoms: _90  and  _91
REMARK   40  A    between atoms: _96  and  _98
REMARK   41  A    between atoms: _98  and  _99
REMARK   42  A    between atoms: _98  and  _101
REMARK   43  A    between atoms: _101  and  _102
REMARK   44  A    between atoms: _108  and  _110
REMARK   45  A    between atoms: _110  and  _111
REMARK   46  A    between atoms: _110  and  _113
REMARK   47  A    between atoms: _113  and  _114
REMARK   48  A    between atoms: _117  and  _119
REMARK   49  A    between atoms: _119  and  _120
REMARK   50  A    between atoms: _119  and  _122
REMARK   51  A    between atoms: _122  and  _123
REMARK   52  A    between atoms: _123  and  _124
REMARK   53  A    between atoms: _124  and  _126
REMARK   54  A    between atoms: _126  and  CA_395
REMARK   55  A    between atoms: _127  and  _129
REMARK   56  A    between atoms: _129  and  _130
REMARK   57  A    between atoms: _129  and  _132
REMARK   58  A    between atoms: _132  and  _133
REMARK   59  A    between atoms: _143  and  _145
REMARK   60  A    between atoms: _145  and  _146
REMARK   61  A    between atoms: _145  and  _148
REMARK   62  A    between atoms: _148  and  _149
REMARK   63  A    between atoms: _152  and  _154
REMARK   64  A    between atoms: _154  and  _155
REMARK   65  A    between atoms: _154  and  _157
REMARK   66  A    between atoms: _157  and  _158
REMARK   67  A    between atoms: _163  and  _165
REMARK   68  A    between atoms: _165  and  _166
REMARK   69  A    between atoms: _165  and  _168
REMARK   70  A    between atoms: _168  and  _169
REMARK   71  A    between atoms: _172  and  _174
REMARK   72  A    between atoms: _174  and  _175
REMARK   73  A    between atoms: _174  and  _177
REMARK   74  A    between atoms: _177  and  _178
REMARK   75  A    between atoms: _184  and  _186
REMARK   76  A    between atoms: _186  and  _187
REMARK   77  A    between atoms: _186  and  _189
REMARK   78  A    between atoms: _189  and  _190
REMARK   79  A    between atoms: _193  and  _195
REMARK   80  A    between atoms: _195  and  _196
REMARK   81  A    between atoms: _195  and  _198
REMARK   82  A    between atoms: _198  and  _199
REMARK   83  A    between atoms: _202  and  _204
REMARK   84  A    between atoms: _204  and  _205
REMARK   85  A    between atoms: _208  and  _210
REMARK   86  A    between atoms: _210  and  _211
REMARK   87  A    between atoms: _210  and  _213
REMARK   88  A    between atoms: _216  and  _218
REMARK   89  A    between atoms: _218  and  _219
REMARK   90  A    between atoms: _218  and  _221
REMARK   91  A    between atoms: _221  and  _222
REMARK   92  A    between atoms: _226  and  ZN_394
REMARK   93  A    between atoms: _229  and  _230
REMARK   94  A    between atoms: _229  and  _232
REMARK   95  A    between atoms: _232  and  _233
REMARK   96  A    between atoms: _233  and  _234
REMARK   97  A    between atoms: _237  and  _239
REMARK   98  A    between atoms: _239  and  _240
REMARK   99  A    between atoms: _239  and  _242
REMARK  100  A    between atoms: _242  and  _243
REMARK  101  A    between atoms: _246  and  _248
REMARK  102  A    between atoms: _248  and  _249
REMARK  103  A    between atoms: _248  and  _251
REMARK  104  A    between atoms: _251  and  _252
REMARK  105  A    between atoms: _256  and  ZN_394
REMARK  106  A    between atoms: _257  and  _259
REMARK  107  A    between atoms: _259  and  _260
REMARK  108  A    between atoms: _259  and  _262
REMARK  109  A    between atoms: _262  and  _263
REMARK  110  A    between atoms: _265  and  _267
REMARK  111  A    between atoms: _267  and  _268
REMARK  112  A    between atoms: _267  and  _270
REMARK  113  A    between atoms: _270  and  _271
REMARK  114  A    between atoms: _274  and  _276
REMARK  115  A    between atoms: _276  and  _277
REMARK  116  A    between atoms: _279  and  _281
REMARK  117  A    between atoms: _281  and  _282
REMARK  118  A    between atoms: _281  and  _284
REMARK  119  A    between atoms: _284  and  _285
REMARK  120  A    between atoms: _289  and  ZN_394
REMARK  121  A    between atoms: _290  and  _292
REMARK  122  A    between atoms: _292  and  _293
REMARK  123  A    between atoms: _296  and  _298
REMARK  124  A    between atoms: _298  and  _299
REMARK  125  A    between atoms: _298  and  _301
REMARK  126  A    between atoms: _304  and  _306
REMARK  127  A    between atoms: _306  and  _307
REMARK  128  A    between atoms: _306  and  _309
REMARK  129  A    between atoms: _309  and  _310
REMARK  130  A    between atoms: _310  and  _311
REMARK  131  A    between atoms: _313  and  _315
REMARK  132  A    between atoms: _315  and  _316
REMARK  133  A    between atoms: _315  and  _318
REMARK  134  A    between atoms: _318  and  _319
REMARK  135  A    between atoms: _326  and  _327
REMARK  136  A    between atoms: _332  and  _334
REMARK  137  A    between atoms: _334  and  _335
REMARK  138  A    between atoms: _334  and  _337
REMARK  139  A    between atoms: _337  and  _338
REMARK  140  A    between atoms: _341  and  _343
REMARK  141  A    between atoms: _343  and  _344
REMARK  142  A    between atoms: _343  and  _346
REMARK  143  A    between atoms: _346  and  _347
REMARK  144  A    between atoms: _352  and  _353
REMARK  145  A    between atoms: _355  and  _357
REMARK  146  A    between atoms: _357  and  _358
REMARK  147  A    between atoms: _357  and  _360
REMARK  148  A    between atoms: _360  and  _361
REMARK  149  A    between atoms: _361  and  _362
REMARK  150  A    between atoms: _362  and  _363
REMARK  151  A    between atoms: _363  and  _364
REMARK  152  A    between atoms: _368  and  _370
REMARK  153  A    between atoms: _370  and  _371
REMARK  154  A    between atoms: _370  and  _373
REMARK  155  A    between atoms: _373  and  _374
REMARK  156  A    between atoms: _379  and  _380
REMARK  157  A    between atoms: _382  and  _384
REMARK  158  A    between atoms: _384  and  _385
REMARK  159  A    between atoms: _384  and  _387
REMARK  160  A    between atoms: _387  and  _388
REMARK                            x       y       z     vdW  Elec       q    Type
REMARK                         _______ _______ _______ _____ _____    ______ ____
ROOT
ATOM      1  O   HOH     1       0.486  30.117   2.908  0.00  0.00    +0.000 OA
ENDROOT
TORSDOF 0
REMARK  Name = ../refined-set-2016/1rmz/1rmz_pocket.pdb
REMARK  160 active torsions:
REMARK  status: ('A' for Active; 'I' for Inactive)
REMARK    1  A    between atoms: _1  and  _3
REMARK    2  A    between atoms: _3  and  _4
REMARK    3  A    between atoms: _3  and  _6
REMARK    4  A    between atoms: _6  and  _7
REMARK    5  A    between atoms: _13  and  _15
REMARK    6  A    between atoms: _15  and  _16
REMARK    7  A    between atoms: _15  and  _18
REMARK    8  A    between atoms: _18  and  _19
REMARK    9  A    between atoms: _22  and  _24
REMARK   10  A    between atoms: _24  and  _25
REMARK   11  A    between atoms: _27  and  _29
REMARK   12  A    between atoms: _29  and  _30
REMARK   13  A    between atoms: _32  and  _34
REMARK   14  A    between atoms: _34  and  _35
REMARK   15  A    between atoms: _34  and  _37
REMARK   16  A    between atoms: _35  and  _36
REMARK   17  A    between atoms: _35  and  _41
REMARK   18  A    between atoms: _36  and  CA_395
REMARK   19  A    between atoms: _37  and  _38
REMARK   20  A    between atoms: _41  and  _43
REMARK   21  A    between atoms: _43  and  _44
REMARK   22  A    between atoms: _43  and  _46
REMARK   23  A    between atoms: _46  and  _47
REMARK   24  A    between atoms: _50  and  _52
REMARK   25  A    between atoms: _52  and  _53
REMARK   26  A    between atoms: _56  and  _58
REMARK   27  A    between atoms: _58  and  _59
REMARK   28  A    between atoms: _58  and  _61
REMARK   29  A    between atoms: _61  and  _62
REMARK   30  A    between atoms: _67  and  _69
REMARK   31  A    between atoms: _69  and  _70
REMARK   32  A    between atoms: _73  and  _75
REMARK   33  A    between atoms: _75  and  _76
REMARK   34  A    between atoms: _75  and  _78
REMARK   35  A    between atoms: _78  and  _79
REMARK   36  A    between atoms: _85  and  _87
REMARK   37  A    between atoms: _87  and  _88
REMARK   38  A    between atoms: _87  and  _90
REMARK   39  A    between atoms: _90  and  _91
REMARK   40  A    between atoms: _96  and  _98
REMARK   41  A    between atoms: _98  and  _99
REMARK   42  A    between atoms: _98  and  _101
REMARK   43  A    between atoms: _101  and  _102
REMARK   44  A    between atoms: _108  and  _110
REMARK   45  A    between atoms: _110  and  _111
REMARK   46  A    between atoms: _110  and  _113
REMARK   47  A    between atoms: _113  and  _114
REMARK   48  A    between atoms: _117  and  _119
REMARK   49  A    between atoms: _119  and  _120
REMARK   50  A    between atoms: _119  and  _122
REMARK   51  A    between atoms: _122  and  _123
REMARK   52  A    between atoms: _123  and  _124
REMARK   53  A    between atoms: _124  and  _126
REMARK   54  A    between atoms: _126  and  CA_395
REMARK   55  A    between atoms: _127  and  _129
REMARK   56  A    between atoms: _129  and  _130
REMARK   57  A    between atoms: _129  and  _132
REMARK   58  A    between atoms: _132  and  _133
REMARK   59  A    between atoms: _143  and  _145
REMARK   60  A    between atoms: _145  and  _146
REMARK   61  A    between atoms: _145  and  _148
REMARK   62  A    between atoms: _148  and  _149
REMARK   63  A    between atoms: _152  and  _154
REMARK   64  A    between atoms: _154  and  _155
REMARK   65  A    between atoms: _154  and  _157
REMARK   66  A    between atoms: _157  and  _158
REMARK   67  A    between atoms: _163  and  _165
REMARK   68  A    between atoms: _165  and  _166
REMARK   69  A    between atoms: _165  and  _168
REMARK   70  A    between atoms: _168  and  _169
REMARK   71  A    between atoms: _172  and  _174
REMARK   72  A    between atoms: _174  and  _175
REMARK   73  A    between atoms: _174  and  _177
REMARK   74  A    between atoms: _177  and  _178
REMARK   75  A    between atoms: _184  and  _186
REMARK   76  A    between atoms: _186  and  _187
REMARK   77  A    between atoms: _186  and  _189
REMARK   78  A    between atoms: _189  and  _190
REMARK   79  A    between atoms: _193  and  _195
REMARK   80  A    between atoms: _195  and  _196
REMARK   81  A    between atoms: _195  and  _198
REMARK   82  A    between atoms: _198  and  _199
REMARK   83  A    between atoms: _202  and  _204
REMARK   84  A    between atoms: _204  and  _205
REMARK   85  A    between atoms: _208  and  _210
REMARK   86  A    between atoms: _210  and  _211
REMARK   87  A    between atoms: _210  and  _213
REMARK   88  A    between atoms: _216  and  _218
REMARK   89  A    between atoms: _218  and  _219
REMARK   90  A    between atoms: _218  and  _221
REMARK   91  A    between atoms: _221  and  _222
REMARK   92  A    between atoms: _226  and  ZN_394
REMARK   93  A    between atoms: _229  and  _230
REMARK   94  A    between atoms: _229  and  _232
REMARK   95  A    between atoms: _232  and  _233
REMARK   96  A    between atoms: _233  and  _234
REMARK   97  A    between atoms: _237  and  _239
REMARK   98  A    between atoms: _239  and  _240
REMARK   99  A    between atoms: _239  and  _242
REMARK  100  A    between atoms: _242  and  _243
REMARK  101  A    between atoms: _246  and  _248
REMARK  102  A    between atoms: _248  and  _249
REMARK  103  A    between atoms: _248  and  _251
REMARK  104  A    between atoms: _251  and  _252
REMARK  105  A    between atoms: _256  and  ZN_394
REMARK  106  A    between atoms: _257  and  _259
REMARK  107  A    between atoms: _259  and  _260
REMARK  108  A    between atoms: _259  and  _262
REMARK  109  A    between atoms: _262  and  _263
REMARK  110  A    between atoms: _265  and  _267
REMARK  111  A    between atoms: _267  and  _268
REMARK  112  A    between atoms: _267  and  _270
REMARK  113  A    between atoms: _270  and  _271
REMARK  114  A    between atoms: _274  and  _276
REMARK  115  A    between atoms: _276  and  _277
REMARK  116  A    between atoms: _279  and  _281
REMARK  117  A    between atoms: _281  and  _282
REMARK  118  A    between atoms: _281  and  _284
REMARK  119  A    between atoms: _284  and  _285
REMARK  120  A    between atoms: _289  and  ZN_394
REMARK  121  A    between atoms: _290  and  _292
REMARK  122  A    between atoms: _292  and  _293
REMARK  123  A    between atoms: _296  and  _298
REMARK  124  A    between atoms: _298  and  _299
REMARK  125  A    between atoms: _298  and  _301
REMARK  126  A    between atoms: _304  and  _306
REMARK  127  A    between atoms: _306  and  _307
REMARK  128  A    between atoms: _306  and  _309
REMARK  129  A    between atoms: _309  and  _310
REMARK  130  A    between atoms: _310  and  _311
REMARK  131  A    between atoms: _313  and  _315
REMARK  132  A    between atoms: _315  and  _316
REMARK  133  A    between atoms: _315  and  _318
REMARK  134  A    between atoms: _318  and  _319
REMARK  135  A    between atoms: _326  and  _327
REMARK  136  A    between atoms: _332  and  _334
REMARK  137  A    between atoms: _334  and  _335
REMARK  138  A    between atoms: _334  and  _337
REMARK  139  A    between atoms: _337  and  _338
REMARK  140  A    between atoms: _341  and  _343
REMARK  141  A    between atoms: _343  and  _344
REMARK  142  A    between atoms: _343  and  _346
REMARK  143  A    between atoms: _346  and  _347
REMARK  144  A    between atoms: _352  and  _353
REMARK  145  A    between atoms: _355  and  _357
REMARK  146  A    between atoms: _357  and  _358
REMARK  147  A    between atoms: _357  and  _360
REMARK  148  A    between atoms: _360  and  _361
REMARK  149  A    between atoms: _361  and  _362
REMARK  150  A    between atoms: _362  and  _363
REMARK  151  A    between atoms: _363  and  _364
REMARK  152  A    between atoms: _368  and  _370
REMARK  153  A    between atoms: _370  and  _371
REMARK  154  A    between atoms: _370  and  _373
REMARK  155  A    between atoms: _373  and  _374
REMARK  156  A    between atoms: _379  and  _380
REMARK  157  A    between atoms: _382  and  _384
REMARK  158  A    between atoms: _384  and  _385
REMARK  159  A    between atoms: _384  and  _387
REMARK  160  A    between atoms: _387  and  _388
REMARK                            x       y       z     vdW  Elec       q    Type
REMARK                         _______ _______ _______ _____ _____    ______ ____
ROOT
ATOM      1  O   HOH     1       9.366  30.387  12.252  0.00  0.00    +0.000 OA
ENDROOT
TORSDOF 0
REMARK  Name = ../refined-set-2016/1rmz/1rmz_pocket.pdb
REMARK  160 active torsions:
REMARK  status: ('A' for Active; 'I' for Inactive)
REMARK    1  A    between atoms: _1  and  _3
REMARK    2  A    between atoms: _3  and  _4
REMARK    3  A    between atoms: _3  and  _6
REMARK    4  A    between atoms: _6  and  _7
REMARK    5  A    between atoms: _13  and  _15
REMARK    6  A    between atoms: _15  and  _16
REMARK    7  A    between atoms: _15  and  _18
REMARK    8  A    between atoms: _18  and  _19
REMARK    9  A    between atoms: _22  and  _24
REMARK   10  A    between atoms: _24  and  _25
REMARK   11  A    between atoms: _27  and  _29
REMARK   12  A    between atoms: _29  and  _30
REMARK   13  A    between atoms: _32  and  _34
REMARK   14  A    between atoms: _34  and  _35
REMARK   15  A    between atoms: _34  and  _37
REMARK   16  A    between atoms: _35  and  _36
REMARK   17  A    between atoms: _35  and  _41
REMARK   18  A    between atoms: _36  and  CA_395
REMARK   19  A    between atoms: _37  and  _38
REMARK   20  A    between atoms: _41  and  _43
REMARK   21  A    between atoms: _43  and  _44
REMARK   22  A    between atoms: _43  and  _46
REMARK   23  A    between atoms: _46  and  _47
REMARK   24  A    between atoms: _50  and  _52
REMARK   25  A    between atoms: _52  and  _53
REMARK   26  A    between atoms: _56  and  _58
REMARK   27  A    between atoms: _58  and  _59
REMARK   28  A    between atoms: _58  and  _61
REMARK   29  A    between atoms: _61  and  _62
REMARK   30  A    between atoms: _67  and  _69
REMARK   31  A    between atoms: _69  and  _70
REMARK   32  A    between atoms: _73  and  _75
REMARK   33  A    between atoms: _75  and  _76
REMARK   34  A    between atoms: _75  and  _78
REMARK   35  A    between atoms: _78  and  _79
REMARK   36  A    between atoms: _85  and  _87
REMARK   37  A    between atoms: _87  and  _88
REMARK   38  A    between atoms: _87  and  _90
REMARK   39  A    between atoms: _90  and  _91
REMARK   40  A    between atoms: _96  and  _98
REMARK   41  A    between atoms: _98  and  _99
REMARK   42  A    between atoms: _98  and  _101
REMARK   43  A    between atoms: _101  and  _102
REMARK   44  A    between atoms: _108  and  _110
REMARK   45  A    between atoms: _110  and  _111
REMARK   46  A    between atoms: _110  and  _113
REMARK   47  A    between atoms: _113  and  _114
REMARK   48  A    between atoms: _117  and  _119
REMARK   49  A    between atoms: _119  and  _120
REMARK   50  A    between atoms: _119  and  _122
REMARK   51  A    between atoms: _122  and  _123
REMARK   52  A    between atoms: _123  and  _124
REMARK   53  A    between atoms: _124  and  _126
REMARK   54  A    between atoms: _126  and  CA_395
REMARK   55  A    between atoms: _127  and  _129
REMARK   56  A    between atoms: _129  and  _130
REMARK   57  A    between atoms: _129  and  _132
REMARK   58  A    between atoms: _132  and  _133
REMARK   59  A    between atoms: _143  and  _145
REMARK   60  A    between atoms: _145  and  _146
REMARK   61  A    between atoms: _145  and  _148
REMARK   62  A    between atoms: _148  and  _149
REMARK   63  A    between atoms: _152  and  _154
REMARK   64  A    between atoms: _154  and  _155
REMARK   65  A    between atoms: _154  and  _157
REMARK   66  A    between atoms: _157  and  _158
REMARK   67  A    between atoms: _163  and  _165
REMARK   68  A    between atoms: _165  and  _166
REMARK   69  A    between atoms: _165  and  _168
REMARK   70  A    between atoms: _168  and  _169
REMARK   71  A    between atoms: _172  and  _174
REMARK   72  A    between atoms: _174  and  _175
REMARK   73  A    between atoms: _174  and  _177
REMARK   74  A    between atoms: _177  and  _178
REMARK   75  A    between atoms: _184  and  _186
REMARK   76  A    between atoms: _186  and  _187
REMARK   77  A    between atoms: _186  and  _189
REMARK   78  A    between atoms: _189  and  _190
REMARK   79  A    between atoms: _193  and  _195
REMARK   80  A    between atoms: _195  and  _196
REMARK   81  A    between atoms: _195  and  _198
REMARK   82  A    between atoms: _198  and  _199
REMARK   83  A    between atoms: _202  and  _204
REMARK   84  A    between atoms: _204  and  _205
REMARK   85  A    between atoms: _208  and  _210
REMARK   86  A    between atoms: _210  and  _211
REMARK   87  A    between atoms: _210  and  _213
REMARK   88  A    between atoms: _216  and  _218
REMARK   89  A    between atoms: _218  and  _219
REMARK   90  A    between atoms: _218  and  _221
REMARK   91  A    between atoms: _221  and  _222
REMARK   92  A    between atoms: _226  and  ZN_394
REMARK   93  A    between atoms: _229  and  _230
REMARK   94  A    between atoms: _229  and  _232
REMARK   95  A    between atoms: _232  and  _233
REMARK   96  A    between atoms: _233  and  _234
REMARK   97  A    between atoms: _237  and  _239
REMARK   98  A    between atoms: _239  and  _240
REMARK   99  A    between atoms: _239  and  _242
REMARK  100  A    between atoms: _242  and  _243
REMARK  101  A    between atoms: _246  and  _248
REMARK  102  A    between atoms: _248  and  _249
REMARK  103  A    between atoms: _248  and  _251
REMARK  104  A    between atoms: _251  and  _252
REMARK  105  A    between atoms: _256  and  ZN_394
REMARK  106  A    between atoms: _257  and  _259
REMARK  107  A    between atoms: _259  and  _260
REMARK  108  A    between atoms: _259  and  _262
REMARK  109  A    between atoms: _262  and  _263
REMARK  110  A    between atoms: _265  and  _267
REMARK  111  A    between atoms: _267  and  _268
REMARK  112  A    between atoms: _267  and  _270
REMARK  113  A    between atoms: _270  and  _271
REMARK  114  A    between atoms: _274  and  _276
REMARK  115  A    between atoms: _276  and  _277
REMARK  116  A    between atoms: _279  and  _281
REMARK  117  A    between atoms: _281  and  _282
REMARK  118  A    between atoms: _281  and  _284
REMARK  119  A    between atoms: _284  and  _285
REMARK  120  A    between atoms: _289  and  ZN_394
REMARK  121  A    between atoms: _290  and  _292
REMARK  122  A    between atoms: _292  and  _293
REMARK  123  A    between atoms: _296  and  _298
REMARK  124  A    between atoms: _298  and  _299
REMARK  125  A    between atoms: _298  and  _301
REMARK  126  A    between atoms: _304  and  _306
REMARK  127  A    between atoms: _306  and  _307
REMARK  128  A    between atoms: _306  and  _309
REMARK  129  A    between atoms: _309  and  _310
REMARK  130  A    between atoms: _310  and  _311
REMARK  131  A    between atoms: _313  and  _315
REMARK  132  A    between atoms: _315  and  _316
REMARK  133  A    between atoms: _315  and  _318
REMARK  134  A    between atoms: _318  and  _319
REMARK  135  A    between atoms: _326  and  _327
REMARK  136  A    between atoms: _332  and  _334
REMARK  137  A    between atoms: _334  and  _335
REMARK  138  A    between atoms: _334  and  _337
REMARK  139  A    between atoms: _337  and  _338
REMARK  140  A    between atoms: _341  and  _343
REMARK  141  A    between atoms: _343  and  _344
REMARK  142  A    between atoms: _343  and  _346
REMARK  143  A    between atoms: _346  and  _347
REMARK  144  A    between atoms: _352  and  _353
REMARK  145  A    between atoms: _355  and  _357
REMARK  146  A    between atoms: _357  and  _358
REMARK  147  A    between atoms: _357  and  _360
REMARK  148  A    between atoms: _360  and  _361
REMARK  149  A    between atoms: _361  and  _362
REMARK  150  A    between atoms: _362  and  _363
REMARK  151  A    between atoms: _363  and  _364
REMARK  152  A    between atoms: _368  and  _370
REMARK  153  A    between atoms: _370  and  _371
REMARK  154  A    between atoms: _370  and  _373
REMARK  155  A    between atoms: _373  and  _374
REMARK  156  A    between atoms: _379  and  _380
REMARK  157  A    between atoms: _382  and  _384
REMARK  158  A    between atoms: _384  and  _385
REMARK  159  A    between atoms: _384  and  _387
REMARK  160  A    between atoms: _387  and  _388
REMARK                            x       y       z     vdW  Elec       q    Type
REMARK                         _______ _______ _______ _____ _____    ______ ____
ROOT
ATOM      1  O   HOH     1      15.936  28.396   1.481  0.00  0.00    +0.000 OA
ENDROOT
TORSDOF 0
REMARK  Name = ../refined-set-2016/1rmz/1rmz_pocket.pdb
REMARK  160 active torsions:
REMARK  status: ('A' for Active; 'I' for Inactive)
REMARK    1  A    between atoms: _1  and  _3
REMARK    2  A    between atoms: _3  and  _4
REMARK    3  A    between atoms: _3  and  _6
REMARK    4  A    between atoms: _6  and  _7
REMARK    5  A    between atoms: _13  and  _15
REMARK    6  A    between atoms: _15  and  _16
REMARK    7  A    between atoms: _15  and  _18
REMARK    8  A    between atoms: _18  and  _19
REMARK    9  A    between atoms: _22  and  _24
REMARK   10  A    between atoms: _24  and  _25
REMARK   11  A    between atoms: _27  and  _29
REMARK   12  A    between atoms: _29  and  _30
REMARK   13  A    between atoms: _32  and  _34
REMARK   14  A    between atoms: _34  and  _35
REMARK   15  A    between atoms: _34  and  _37
REMARK   16  A    between atoms: _35  and  _36
REMARK   17  A    between atoms: _35  and  _41
REMARK   18  A    between atoms: _36  and  CA_395
REMARK   19  A    between atoms: _37  and  _38
REMARK   20  A    between atoms: _41  and  _43
REMARK   21  A    between atoms: _43  and  _44
REMARK   22  A    between atoms: _43  and  _46
REMARK   23  A    between atoms: _46  and  _47
REMARK   24  A    between atoms: _50  and  _52
REMARK   25  A    between atoms: _52  and  _53
REMARK   26  A    between atoms: _56  and  _58
REMARK   27  A    between atoms: _58  and  _59
REMARK   28  A    between atoms: _58  and  _61
REMARK   29  A    between atoms: _61  and  _62
REMARK   30  A    between atoms: _67  and  _69
REMARK   31  A    between atoms: _69  and  _70
REMARK   32  A    between atoms: _73  and  _75
REMARK   33  A    between atoms: _75  and  _76
REMARK   34  A    between atoms: _75  and  _78
REMARK   35  A    between atoms: _78  and  _79
REMARK   36  A    between atoms: _85  and  _87
REMARK   37  A    between atoms: _87  and  _88
REMARK   38  A    between atoms: _87  and  _90
REMARK   39  A    between atoms: _90  and  _91
REMARK   40  A    between atoms: _96  and  _98
REMARK   41  A    between atoms: _98  and  _99
REMARK   42  A    between atoms: _98  and  _101
REMARK   43  A    between atoms: _101  and  _102
REMARK   44  A    between atoms: _108  and  _110
REMARK   45  A    between atoms: _110  and  _111
REMARK   46  A    between atoms: _110  and  _113
REMARK   47  A    between atoms: _113  and  _114
REMARK   48  A    between atoms: _117  and  _119
REMARK   49  A    between atoms: _119  and  _120
REMARK   50  A    between atoms: _119  and  _122
REMARK   51  A    between atoms: _122  and  _123
REMARK   52  A    between atoms: _123  and  _124
REMARK   53  A    between atoms: _124  and  _126
REMARK   54  A    between atoms: _126  and  CA_395
REMARK   55  A    between atoms: _127  and  _129
REMARK   56  A    between atoms: _129  and  _130
REMARK   57  A    between atoms: _129  and  _132
REMARK   58  A    between atoms: _132  and  _133
REMARK   59  A    between atoms: _143  and  _145
REMARK   60  A    between atoms: _145  and  _146
REMARK   61  A    between atoms: _145  and  _148
REMARK   62  A    between atoms: _148  and  _149
REMARK   63  A    between atoms: _152  and  _154
REMARK   64  A    between atoms: _154  and  _155
REMARK   65  A    between atoms: _154  and  _157
REMARK   66  A    between atoms: _157  and  _158
REMARK   67  A    between atoms: _163  and  _165
REMARK   68  A    between atoms: _165  and  _166
REMARK   69  A    between atoms: _165  and  _168
REMARK   70  A    between atoms: _168  and  _169
REMARK   71  A    between atoms: _172  and  _174
REMARK   72  A    between atoms: _174  and  _175
REMARK   73  A    between atoms: _174  and  _177
REMARK   74  A    between atoms: _177  and  _178
REMARK   75  A    between atoms: _184  and  _186
REMARK   76  A    between atoms: _186  and  _187
REMARK   77  A    between atoms: _186  and  _189
REMARK   78  A    between atoms: _189  and  _190
REMARK   79  A    between atoms: _193  and  _195
REMARK   80  A    between atoms: _195  and  _196
REMARK   81  A    between atoms: _195  and  _198
REMARK   82  A    between atoms: _198  and  _199
REMARK   83  A    between atoms: _202  and  _204
REMARK   84  A    between atoms: _204  and  _205
REMARK   85  A    between atoms: _208  and  _210
REMARK   86  A    between atoms: _210  and  _211
REMARK   87  A    between atoms: _210  and  _213
REMARK   88  A    between atoms: _216  and  _218
REMARK   89  A    between atoms: _218  and  _219
REMARK   90  A    between atoms: _218  and  _221
REMARK   91  A    between atoms: _221  and  _222
REMARK   92  A    between atoms: _226  and  ZN_394
REMARK   93  A    between atoms: _229  and  _230
REMARK   94  A    between atoms: _229  and  _232
REMARK   95  A    between atoms: _232  and  _233
REMARK   96  A    between atoms: _233  and  _234
REMARK   97  A    between atoms: _237  and  _239
REMARK   98  A    between atoms: _239  and  _240
REMARK   99  A    between atoms: _239  and  _242
REMARK  100  A    between atoms: _242  and  _243
REMARK  101  A    between atoms: _246  and  _248
REMARK  102  A    between atoms: _248  and  _249
REMARK  103  A    between atoms: _248  and  _251
REMARK  104  A    between atoms: _251  and  _252
REMARK  105  A    between atoms: _256  and  ZN_394
REMARK  106  A    between atoms: _257  and  _259
REMARK  107  A    between atoms: _259  and  _260
REMARK  108  A    between atoms: _259  and  _262
REMARK  109  A    between atoms: _262  and  _263
REMARK  110  A    between atoms: _265  and  _267
REMARK  111  A    between atoms: _267  and  _268
REMARK  112  A    between atoms: _267  and  _270
REMARK  113  A    between atoms: _270  and  _271
REMARK  114  A    between atoms: _274  and  _276
REMARK  115  A    between atoms: _276  and  _277
REMARK  116  A    between atoms: _279  and  _281
REMARK  117  A    between atoms: _281  and  _282
REMARK  118  A    between atoms: _281  and  _284
REMARK  119  A    between atoms: _284  and  _285
REMARK  120  A    between atoms: _289  and  ZN_394
REMARK  121  A    between atoms: _290  and  _292
REMARK  122  A    between atoms: _292  and  _293
REMARK  123  A    between atoms: _296  and  _298
REMARK  124  A    between atoms: _298  and  _299
REMARK  125  A    between atoms: _298  and  _301
REMARK  126  A    between atoms: _304  and  _306
REMARK  127  A    between atoms: _306  and  _307
REMARK  128  A    between atoms: _306  and  _309
REMARK  129  A    between atoms: _309  and  _310
REMARK  130  A    between atoms: _310  and  _311
REMARK  131  A    between atoms: _313  and  _315
REMARK  132  A    between atoms: _315  and  _316
REMARK  133  A    between atoms: _315  and  _318
REMARK  134  A    between atoms: _318  and  _319
REMARK  135  A    between atoms: _326  and  _327
REMARK  136  A    between atoms: _332  and  _334
REMARK  137  A    between atoms: _334  and  _335
REMARK  138  A    between atoms: _334  and  _337
REMARK  139  A    between atoms: _337  and  _338
REMARK  140  A    between atoms: _341  and  _343
REMARK  141  A    between atoms: _343  and  _344
REMARK  142  A    between atoms: _343  and  _346
REMARK  143  A    between atoms: _346  and  _347
REMARK  144  A    between atoms: _352  and  _353
REMARK  145  A    between atoms: _355  and  _357
REMARK  146  A    between atoms: _357  and  _358
REMARK  147  A    between atoms: _357  and  _360
REMARK  148  A    between atoms: _360  and  _361
REMARK  149  A    between atoms: _361  and  _362
REMARK  150  A    between atoms: _362  and  _363
REMARK  151  A    between atoms: _363  and  _364
REMARK  152  A    between atoms: _368  and  _370
REMARK  153  A    between atoms: _370  and  _371
REMARK  154  A    between atoms: _370  and  _373
REMARK  155  A    between atoms: _373  and  _374
REMARK  156  A    between atoms: _379  and  _380
REMARK  157  A    between atoms: _382  and  _384
REMARK  158  A    between atoms: _384  and  _385
REMARK  159  A    between atoms: _384  and  _387
REMARK  160  A    between atoms: _387  and  _388
REMARK                            x       y       z     vdW  Elec       q    Type
REMARK                         _______ _______ _______ _____ _____    ______ ____
ROOT
ATOM      1  O   HOH     1       8.678  27.953  -0.407  0.00  0.00    +0.000 OA
ENDROOT
TORSDOF 0
REMARK  Name = ../refined-set-2016/1rmz/1rmz_pocket.pdb
REMARK  160 active torsions:
REMARK  status: ('A' for Active; 'I' for Inactive)
REMARK    1  A    between atoms: _1  and  _3
REMARK    2  A    between atoms: _3  and  _4
REMARK    3  A    between atoms: _3  and  _6
REMARK    4  A    between atoms: _6  and  _7
REMARK    5  A    between atoms: _13  and  _15
REMARK    6  A    between atoms: _15  and  _16
REMARK    7  A    between atoms: _15  and  _18
REMARK    8  A    between atoms: _18  and  _19
REMARK    9  A    between atoms: _22  and  _24
REMARK   10  A    between atoms: _24  and  _25
REMARK   11  A    between atoms: _27  and  _29
REMARK   12  A    between atoms: _29  and  _30
REMARK   13  A    between atoms: _32  and  _34
REMARK   14  A    between atoms: _34  and  _35
REMARK   15  A    between atoms: _34  and  _37
REMARK   16  A    between atoms: _35  and  _36
REMARK   17  A    between atoms: _35  and  _41
REMARK   18  A    between atoms: _36  and  CA_395
REMARK   19  A    between atoms: _37  and  _38
REMARK   20  A    between atoms: _41  and  _43
REMARK   21  A    between atoms: _43  and  _44
REMARK   22  A    between atoms: _43  and  _46
REMARK   23  A    between atoms: _46  and  _47
REMARK   24  A    between atoms: _50  and  _52
REMARK   25  A    between atoms: _52  and  _53
REMARK   26  A    between atoms: _56  and  _58
REMARK   27  A    between atoms: _58  and  _59
REMARK   28  A    between atoms: _58  and  _61
REMARK   29  A    between atoms: _61  and  _62
REMARK   30  A    between atoms: _67  and  _69
REMARK   31  A    between atoms: _69  and  _70
REMARK   32  A    between atoms: _73  and  _75
REMARK   33  A    between atoms: _75  and  _76
REMARK   34  A    between atoms: _75  and  _78
REMARK   35  A    between atoms: _78  and  _79
REMARK   36  A    between atoms: _85  and  _87
REMARK   37  A    between atoms: _87  and  _88
REMARK   38  A    between atoms: _87  and  _90
REMARK   39  A    between atoms: _90  and  _91
REMARK   40  A    between atoms: _96  and  _98
REMARK   41  A    between atoms: _98  and  _99
REMARK   42  A    between atoms: _98  and  _101
REMARK   43  A    between atoms: _101  and  _102
REMARK   44  A    between atoms: _108  and  _110
REMARK   45  A    between atoms: _110  and  _111
REMARK   46  A    between atoms: _110  and  _113
REMARK   47  A    between atoms: _113  and  _114
REMARK   48  A    between atoms: _117  and  _119
REMARK   49  A    between atoms: _119  and  _120
REMARK   50  A    between atoms: _119  and  _122
REMARK   51  A    between atoms: _122  and  _123
REMARK   52  A    between atoms: _123  and  _124
REMARK   53  A    between atoms: _124  and  _126
REMARK   54  A    between atoms: _126  and  CA_395
REMARK   55  A    between atoms: _127  and  _129
REMARK   56  A    between atoms: _129  and  _130
REMARK   57  A    between atoms: _129  and  _132
REMARK   58  A    between atoms: _132  and  _133
REMARK   59  A    between atoms: _143  and  _145
REMARK   60  A    between atoms: _145  and  _146
REMARK   61  A    between atoms: _145  and  _148
REMARK   62  A    between atoms: _148  and  _149
REMARK   63  A    between atoms: _152  and  _154
REMARK   64  A    between atoms: _154  and  _155
REMARK   65  A    between atoms: _154  and  _157
REMARK   66  A    between atoms: _157  and  _158
REMARK   67  A    between atoms: _163  and  _165
REMARK   68  A    between atoms: _165  and  _166
REMARK   69  A    between atoms: _165  and  _168
REMARK   70  A    between atoms: _168  and  _169
REMARK   71  A    between atoms: _172  and  _174
REMARK   72  A    between atoms: _174  and  _175
REMARK   73  A    between atoms: _174  and  _177
REMARK   74  A    between atoms: _177  and  _178
REMARK   75  A    between atoms: _184  and  _186
REMARK   76  A    between atoms: _186  and  _187
REMARK   77  A    between atoms: _186  and  _189
REMARK   78  A    between atoms: _189  and  _190
REMARK   79  A    between atoms: _193  and  _195
REMARK   80  A    between atoms: _195  and  _196
REMARK   81  A    between atoms: _195  and  _198
REMARK   82  A    between atoms: _198  and  _199
REMARK   83  A    between atoms: _202  and  _204
REMARK   84  A    between atoms: _204  and  _205
REMARK   85  A    between atoms: _208  and  _210
REMARK   86  A    between atoms: _210  and  _211
REMARK   87  A    between atoms: _210  and  _213
REMARK   88  A    between atoms: _216  and  _218
REMARK   89  A    between atoms: _218  and  _219
REMARK   90  A    between atoms: _218  and  _221
REMARK   91  A    between atoms: _221  and  _222
REMARK   92  A    between atoms: _226  and  ZN_394
REMARK   93  A    between atoms: _229  and  _230
REMARK   94  A    between atoms: _229  and  _232
REMARK   95  A    between atoms: _232  and  _233
REMARK   96  A    between atoms: _233  and  _234
REMARK   97  A    between atoms: _237  and  _239
REMARK   98  A    between atoms: _239  and  _240
REMARK   99  A    between atoms: _239  and  _242
REMARK  100  A    between atoms: _242  and  _243
REMARK  101  A    between atoms: _246  and  _248
REMARK  102  A    between atoms: _248  and  _249
REMARK  103  A    between atoms: _248  and  _251
REMARK  104  A    between atoms: _251  and  _252
REMARK  105  A    between atoms: _256  and  ZN_394
REMARK  106  A    between atoms: _257  and  _259
REMARK  107  A    between atoms: _259  and  _260
REMARK  108  A    between atoms: _259  and  _262
REMARK  109  A    between atoms: _262  and  _263
REMARK  110  A    between atoms: _265  and  _267
REMARK  111  A    between atoms: _267  and  _268
REMARK  112  A    between atoms: _267  and  _270
REMARK  113  A    between atoms: _270  and  _271
REMARK  114  A    between atoms: _274  and  _276
REMARK  115  A    between atoms: _276  and  _277
REMARK  116  A    between atoms: _279  and  _281
REMARK  117  A    between atoms: _281  and  _282
REMARK  118  A    between atoms: _281  and  _284
REMARK  119  A    between atoms: _284  and  _285
REMARK  120  A    between atoms: _289  and  ZN_394
REMARK  121  A    between atoms: _290  and  _292
REMARK  122  A    between atoms: _292  and  _293
REMARK  123  A    between atoms: _296  and  _298
REMARK  124  A    between atoms: _298  and  _299
REMARK  125  A    between atoms: _298  and  _301
REMARK  126  A    between atoms: _304  and  _306
REMARK  127  A    between atoms: _306  and  _307
REMARK  128  A    between atoms: _306  and  _309
REMARK  129  A    between atoms: _309  and  _310
REMARK  130  A    between atoms: _310  and  _311
REMARK  131  A    between atoms: _313  and  _315
REMARK  132  A    between atoms: _315  and  _316
REMARK  133  A    between atoms: _315  and  _318
REMARK  134  A    between atoms: _318  and  _319
REMARK  135  A    between atoms: _326  and  _327
REMARK  136  A    between atoms: _332  and  _334
REMARK  137  A    between atoms: _334  and  _335
REMARK  138  A    between atoms: _334  and  _337
REMARK  139  A    between atoms: _337  and  _338
REMARK  140  A    between atoms: _341  and  _343
REMARK  141  A    between atoms: _343  and  _344
REMARK  142  A    between atoms: _343  and  _346
REMARK  143  A    between atoms: _346  and  _347
REMARK  144  A    between atoms: _352  and  _353
REMARK  145  A    between atoms: _355  and  _357
REMARK  146  A    between atoms: _357  and  _358
REMARK  147  A    between atoms: _357  and  _360
REMARK  148  A    between atoms: _360  and  _361
REMARK  149  A    between atoms: _361  and  _362
REMARK  150  A    between atoms: _362  and  _363
REMARK  151  A    between atoms: _363  and  _364
REMARK  152  A    between atoms: _368  and  _370
REMARK  153  A    between atoms: _370  and  _371
REMARK  154  A    between atoms: _370  and  _373
REMARK  155  A    between atoms: _373  and  _374
REMARK  156  A    between atoms: _379  and  _380
REMARK  157  A    between atoms: _382  and  _384
REMARK  158  A    between atoms: _384  and  _385
REMARK  159  A    between atoms: _384  and  _387
REMARK  160  A    between atoms: _387  and  _388
REMARK                            x       y       z     vdW  Elec       q    Type
REMARK                         _______ _______ _______ _____ _____    ______ ____
ROOT
ATOM      1  O   HOH     1      -3.770  22.849   8.585  0.00  0.00    +0.000 OA
ENDROOT
TORSDOF 0
