REMARK  Name = ../refined-set-2016/3t08/3t08_pocket.pdb
REMARK  188 active torsions:
REMARK  status: ('A' for Active; 'I' for Inactive)
REMARK    1  A    between atoms: _1  and  _3
REMARK    2  A    between atoms: _3  and  _4
REMARK    3  A    between atoms: _3  and  _6
REMARK    4  A    between atoms: _6  and  _7
REMARK    5  A    between atoms: _12  and  _13
REMARK    6  A    between atoms: _15  and  _17
REMARK    7  A    between atoms: _17  and  _18
REMARK    8  A    between atoms: _17  and  _20
REMARK    9  A    between atoms: _20  and  _21
REMARK   10  A    between atoms: _26  and  _28
REMARK   11  A    between atoms: _28  and  _29
REMARK   12  A    between atoms: _28  and  _31
REMARK   13  A    between atoms: _34  and  _36
REMARK   14  A    between atoms: _36  and  _37
REMARK   15  A    between atoms: _36  and  _39
REMARK   16  A    between atoms: _39  and  _40
REMARK   17  A    between atoms: _43  and  _45
REMARK   18  A    between atoms: _45  and  _46
REMARK   19  A    between atoms: _45  and  _48
REMARK   20  A    between atoms: _48  and  _49
REMARK   21  A    between atoms: _49  and  _50
REMARK   22  A    between atoms: _55  and  _57
REMARK   23  A    between atoms: _57  and  _58
REMARK   24  A    between atoms: _57  and  _60
REMARK   25  A    between atoms: _60  and  _61
REMARK   26  A    between atoms: _64  and  _66
REMARK   27  A    between atoms: _66  and  _67
REMARK   28  A    between atoms: _66  and  _69
REMARK   29  A    between atoms: _69  and  _70
REMARK   30  A    between atoms: _70  and  _71
REMARK   31  A    between atoms: _73  and  _75
REMARK   32  A    between atoms: _75  and  _76
REMARK   33  A    between atoms: _75  and  _78
REMARK   34  A    between atoms: _78  and  _79
REMARK   35  A    between atoms: _84  and  _86
REMARK   36  A    between atoms: _86  and  _87
REMARK   37  A    between atoms: _86  and  _89
REMARK   38  A    between atoms: _89  and  _90
REMARK   39  A    between atoms: _95  and  _97
REMARK   40  A    between atoms: _97  and  _98
REMARK   41  A    between atoms: _97  and  _100
REMARK   42  A    between atoms: _100  and  _101
REMARK   43  A    between atoms: _101  and  _102
REMARK   44  A    between atoms: _102  and  _103
REMARK   45  A    between atoms: _112  and  _114
REMARK   46  A    between atoms: _114  and  _115
REMARK   47  A    between atoms: _114  and  _117
REMARK   48  A    between atoms: _117  and  _118
REMARK   49  A    between atoms: _123  and  _125
REMARK   50  A    between atoms: _125  and  _126
REMARK   51  A    between atoms: _125  and  _128
REMARK   52  A    between atoms: _128  and  _129
REMARK   53  A    between atoms: _129  and  _130
REMARK   54  A    between atoms: _133  and  _135
REMARK   55  A    between atoms: _135  and  _136
REMARK   56  A    between atoms: _135  and  _138
REMARK   57  A    between atoms: _138  and  _139
REMARK   58  A    between atoms: _140  and  MG_451
REMARK   59  A    between atoms: _144  and  _146
REMARK   60  A    between atoms: _146  and  _147
REMARK   61  A    between atoms: _146  and  _149
REMARK   62  A    between atoms: _149  and  _150
REMARK   63  A    between atoms: _150  and  _151
REMARK   64  A    between atoms: _153  and  _155
REMARK   65  A    between atoms: _155  and  _156
REMARK   66  A    between atoms: _155  and  _158
REMARK   67  A    between atoms: _158  and  _159
REMARK   68  A    between atoms: _164  and  _166
REMARK   69  A    between atoms: _166  and  _167
REMARK   70  A    between atoms: _166  and  _169
REMARK   71  A    between atoms: _169  and  _170
REMARK   72  A    between atoms: _170  and  _171
REMARK   73  A    between atoms: _174  and  _176
REMARK   74  A    between atoms: _176  and  _177
REMARK   75  A    between atoms: _176  and  _179
REMARK   76  A    between atoms: _179  and  _180
REMARK   77  A    between atoms: _180  and  _181
REMARK   78  A    between atoms: _184  and  _186
REMARK   79  A    between atoms: _186  and  _187
REMARK   80  A    between atoms: _186  and  _189
REMARK   81  A    between atoms: _189  and  _190
REMARK   82  A    between atoms: _190  and  _191
REMARK   83  A    between atoms: _193  and  _195
REMARK   84  A    between atoms: _195  and  _196
REMARK   85  A    between atoms: _195  and  _198
REMARK   86  A    between atoms: _198  and  _199
REMARK   87  A    between atoms: _204  and  _205
REMARK   88  A    between atoms: _207  and  _209
REMARK   89  A    between atoms: _209  and  _210
REMARK   90  A    between atoms: _209  and  _212
REMARK   91  A    between atoms: _212  and  _213
REMARK   92  A    between atoms: _213  and  _214
REMARK   93  A    between atoms: _214  and  _215
REMARK   94  A    between atoms: _215  and  _216
REMARK   95  A    between atoms: _220  and  _222
REMARK   96  A    between atoms: _222  and  _223
REMARK   97  A    between atoms: _222  and  _225
REMARK   98  A    between atoms: _227  and  _229
REMARK   99  A    between atoms: _229  and  _230
REMARK  100  A    between atoms: _229  and  _232
REMARK  101  A    between atoms: _232  and  _233
REMARK  102  A    between atoms: _233  and  _234
REMARK  103  A    between atoms: _237  and  _239
REMARK  104  A    between atoms: _239  and  _240
REMARK  105  A    between atoms: _239  and  _242
REMARK  106  A    between atoms: _242  and  _243
REMARK  107  A    between atoms: _248  and  _250
REMARK  108  A    between atoms: _250  and  _251
REMARK  109  A    between atoms: _254  and  _256
REMARK  110  A    between atoms: _256  and  _257
REMARK  111  A    between atoms: _256  and  _259
REMARK  112  A    between atoms: _259  and  _260
REMARK  113  A    between atoms: _260  and  _261
REMARK  114  A    between atoms: _263  and  _265
REMARK  115  A    between atoms: _265  and  _266
REMARK  116  A    between atoms: _265  and  _268
REMARK  117  A    between atoms: _268  and  _269
REMARK  118  A    between atoms: _279  and  _281
REMARK  119  A    between atoms: _281  and  _282
REMARK  120  A    between atoms: _281  and  _284
REMARK  121  A    between atoms: _284  and  _285
REMARK  122  A    between atoms: _288  and  _290
REMARK  123  A    between atoms: _290  and  _291
REMARK  124  A    between atoms: _290  and  _293
REMARK  125  A    between atoms: _293  and  _294
REMARK  126  A    between atoms: _294  and  _295
REMARK  127  A    between atoms: _300  and  _302
REMARK  128  A    between atoms: _302  and  _303
REMARK  129  A    between atoms: _302  and  _305
REMARK  130  A    between atoms: _305  and  _306
REMARK  131  A    between atoms: _309  and  _311
REMARK  132  A    between atoms: _311  and  _312
REMARK  133  A    between atoms: _311  and  _314
REMARK  134  A    between atoms: _314  and  _315
REMARK  135  A    between atoms: _315  and  _316
REMARK  136  A    between atoms: _321  and  _323
REMARK  137  A    between atoms: _323  and  _324
REMARK  138  A    between atoms: _323  and  _326
REMARK  139  A    between atoms: _326  and  _327
REMARK  140  A    between atoms: _333  and  _335
REMARK  141  A    between atoms: _335  and  _336
REMARK  142  A    between atoms: _335  and  _338
REMARK  143  A    between atoms: _340  and  _342
REMARK  144  A    between atoms: _342  and  _343
REMARK  145  A    between atoms: _342  and  _345
REMARK  146  A    between atoms: _345  and  _346
REMARK  147  A    between atoms: _346  and  _347
REMARK  148  A    between atoms: _349  and  _351
REMARK  149  A    between atoms: _351  and  _352
REMARK  150  A    between atoms: _351  and  _354
REMARK  151  A    between atoms: _354  and  _355
REMARK  152  A    between atoms: _360  and  _362
REMARK  153  A    between atoms: _362  and  _363
REMARK  154  A    between atoms: _365  and  _367
REMARK  155  A    between atoms: _367  and  _368
REMARK  156  A    between atoms: _367  and  _370
REMARK  157  A    between atoms: _373  and  _375
REMARK  158  A    between atoms: _375  and  _376
REMARK  159  A    between atoms: _375  and  _378
REMARK  160  A    between atoms: _378  and  _379
REMARK  161  A    between atoms: _379  and  _380
REMARK  162  A    between atoms: _383  and  _385
REMARK  163  A    between atoms: _385  and  _386
REMARK  164  A    between atoms: _385  and  _388
REMARK  165  A    between atoms: _388  and  _389
REMARK  166  A    between atoms: _392  and  _394
REMARK  167  A    between atoms: _394  and  _395
REMARK  168  A    between atoms: _394  and  _397
REMARK  169  A    between atoms: _397  and  _398
REMARK  170  A    between atoms: _400  and  _402
REMARK  171  A    between atoms: _402  and  _403
REMARK  172  A    between atoms: _402  and  _405
REMARK  173  A    between atoms: _405  and  _406
REMARK  174  A    between atoms: _416  and  _418
REMARK  175  A    between atoms: _418  and  _419
REMARK  176  A    between atoms: _418  and  _421
REMARK  177  A    between atoms: _421  and  _422
REMARK  178  A    between atoms: _424  and  _426
REMARK  179  A    between atoms: _426  and  _427
REMARK  180  A    between atoms: _426  and  _429
REMARK  181  A    between atoms: _429  and  _430
REMARK  182  A    between atoms: _430  and  _431
REMARK  183  A    between atoms: _434  and  _436
REMARK  184  A    between atoms: _436  and  _437
REMARK  185  A    between atoms: _436  and  _439
REMARK  186  A    between atoms: _439  and  _440
REMARK  187  A    between atoms: _440  and  _441
REMARK  188  A    between atoms: _441  and  _442
REMARK                            x       y       z     vdW  Elec       q    Type
REMARK                         _______ _______ _______ _____ _____    ______ ____
ROOT
ATOM      1  CG  TYR A   1     -12.744 -38.324 -31.302  0.00  0.00    -0.020 A 
ATOM      2  CD2 TYR A   1     -11.846 -37.620 -30.492  0.00  0.00    -0.001 A 
ATOM      3  CE2 TYR A   1     -11.991 -36.260 -30.271  0.00  0.00    +0.036 A 
ATOM      4  CZ  TYR A   1     -13.052 -35.586 -30.854  0.00  0.00    +0.134 A 
ATOM      5  CE1 TYR A   1     -13.968 -36.262 -31.654  0.00  0.00    +0.036 A 
ATOM      6  CD1 TYR A   1     -13.816 -37.630 -31.862  0.00  0.00    -0.001 A 
ENDROOT
BRANCH   4   7
ATOM      7  OH  TYR A   1     -13.194 -34.239 -30.639  0.00  0.00    -0.506 OA
ATOM      8  HH  TYR A   1     -12.463 -33.921 -30.052  0.00  0.00    +0.292 HD
ENDBRANCH   4   7
BRANCH   1   9
ATOM      9  CB  TYR A   1     -12.601 -39.815 -31.482  0.00  0.00    +0.051 C 
BRANCH   9  10
ATOM     10  CA  TYR A   1     -12.775 -40.505 -30.121  0.00  0.00    +0.137 C 
BRANCH  10  11
ATOM     11  N   TYR A   1     -12.790 -41.955 -30.171  0.00  0.00    -0.239 NA
ATOM     12  H   TYR A   1     -13.454 -42.455 -30.796  0.00  0.00    +0.142 HD
ENDBRANCH  10  11
BRANCH  10  13
ATOM     13  C   TYR A   1     -13.974 -39.942 -29.381  0.00  0.00    +0.224 C 
ATOM     14  O   TYR A   1     -15.096 -39.945 -29.888  0.00  0.00    -0.287 OA
ENDBRANCH  10  13
ENDBRANCH   9  10
ENDBRANCH   1   9
TORSDOF 5
REMARK  Name = ../refined-set-2016/3t08/3t08_pocket.pdb
REMARK  188 active torsions:
REMARK  status: ('A' for Active; 'I' for Inactive)
REMARK    1  A    between atoms: _1  and  _3
REMARK    2  A    between atoms: _3  and  _4
REMARK    3  A    between atoms: _3  and  _6
REMARK    4  A    between atoms: _6  and  _7
REMARK    5  A    between atoms: _12  and  _13
REMARK    6  A    between atoms: _15  and  _17
REMARK    7  A    between atoms: _17  and  _18
REMARK    8  A    between atoms: _17  and  _20
REMARK    9  A    between atoms: _20  and  _21
REMARK   10  A    between atoms: _26  and  _28
REMARK   11  A    between atoms: _28  and  _29
REMARK   12  A    between atoms: _28  and  _31
REMARK   13  A    between atoms: _34  and  _36
REMARK   14  A    between atoms: _36  and  _37
REMARK   15  A    between atoms: _36  and  _39
REMARK   16  A    between atoms: _39  and  _40
REMARK   17  A    between atoms: _43  and  _45
REMARK   18  A    between atoms: _45  and  _46
REMARK   19  A    between atoms: _45  and  _48
REMARK   20  A    between atoms: _48  and  _49
REMARK   21  A    between atoms: _49  and  _50
REMARK   22  A    between atoms: _55  and  _57
REMARK   23  A    between atoms: _57  and  _58
REMARK   24  A    between atoms: _57  and  _60
REMARK   25  A    between atoms: _60  and  _61
REMARK   26  A    between atoms: _64  and  _66
REMARK   27  A    between atoms: _66  and  _67
REMARK   28  A    between atoms: _66  and  _69
REMARK   29  A    between atoms: _69  and  _70
REMARK   30  A    between atoms: _70  and  _71
REMARK   31  A    between atoms: _73  and  _75
REMARK   32  A    between atoms: _75  and  _76
REMARK   33  A    between atoms: _75  and  _78
REMARK   34  A    between atoms: _78  and  _79
REMARK   35  A    between atoms: _84  and  _86
REMARK   36  A    between atoms: _86  and  _87
REMARK   37  A    between atoms: _86  and  _89
REMARK   38  A    between atoms: _89  and  _90
REMARK   39  A    between atoms: _95  and  _97
REMARK   40  A    between atoms: _97  and  _98
REMARK   41  A    between atoms: _97  and  _100
REMARK   42  A    between atoms: _100  and  _101
REMARK   43  A    between atoms: _101  and  _102
REMARK   44  A    between atoms: _102  and  _103
REMARK   45  A    between atoms: _112  and  _114
REMARK   46  A    between atoms: _114  and  _115
REMARK   47  A    between atoms: _114  and  _117
REMARK   48  A    between atoms: _117  and  _118
REMARK   49  A    between atoms: _123  and  _125
REMARK   50  A    between atoms: _125  and  _126
REMARK   51  A    between atoms: _125  and  _128
REMARK   52  A    between atoms: _128  and  _129
REMARK   53  A    between atoms: _129  and  _130
REMARK   54  A    between atoms: _133  and  _135
REMARK   55  A    between atoms: _135  and  _136
REMARK   56  A    between atoms: _135  and  _138
REMARK   57  A    between atoms: _138  and  _139
REMARK   58  A    between atoms: _140  and  MG_451
REMARK   59  A    between atoms: _144  and  _146
REMARK   60  A    between atoms: _146  and  _147
REMARK   61  A    between atoms: _146  and  _149
REMARK   62  A    between atoms: _149  and  _150
REMARK   63  A    between atoms: _150  and  _151
REMARK   64  A    between atoms: _153  and  _155
REMARK   65  A    between atoms: _155  and  _156
REMARK   66  A    between atoms: _155  and  _158
REMARK   67  A    between atoms: _158  and  _159
REMARK   68  A    between atoms: _164  and  _166
REMARK   69  A    between atoms: _166  and  _167
REMARK   70  A    between atoms: _166  and  _169
REMARK   71  A    between atoms: _169  and  _170
REMARK   72  A    between atoms: _170  and  _171
REMARK   73  A    between atoms: _174  and  _176
REMARK   74  A    between atoms: _176  and  _177
REMARK   75  A    between atoms: _176  and  _179
REMARK   76  A    between atoms: _179  and  _180
REMARK   77  A    between atoms: _180  and  _181
REMARK   78  A    between atoms: _184  and  _186
REMARK   79  A    between atoms: _186  and  _187
REMARK   80  A    between atoms: _186  and  _189
REMARK   81  A    between atoms: _189  and  _190
REMARK   82  A    between atoms: _190  and  _191
REMARK   83  A    between atoms: _193  and  _195
REMARK   84  A    between atoms: _195  and  _196
REMARK   85  A    between atoms: _195  and  _198
REMARK   86  A    between atoms: _198  and  _199
REMARK   87  A    between atoms: _204  and  _205
REMARK   88  A    between atoms: _207  and  _209
REMARK   89  A    between atoms: _209  and  _210
REMARK   90  A    between atoms: _209  and  _212
REMARK   91  A    between atoms: _212  and  _213
REMARK   92  A    between atoms: _213  and  _214
REMARK   93  A    between atoms: _214  and  _215
REMARK   94  A    between atoms: _215  and  _216
REMARK   95  A    between atoms: _220  and  _222
REMARK   96  A    between atoms: _222  and  _223
REMARK   97  A    between atoms: _222  and  _225
REMARK   98  A    between atoms: _227  and  _229
REMARK   99  A    between atoms: _229  and  _230
REMARK  100  A    between atoms: _229  and  _232
REMARK  101  A    between atoms: _232  and  _233
REMARK  102  A    between atoms: _233  and  _234
REMARK  103  A    between atoms: _237  and  _239
REMARK  104  A    between atoms: _239  and  _240
REMARK  105  A    between atoms: _239  and  _242
REMARK  106  A    between atoms: _242  and  _243
REMARK  107  A    between atoms: _248  and  _250
REMARK  108  A    between atoms: _250  and  _251
REMARK  109  A    between atoms: _254  and  _256
REMARK  110  A    between atoms: _256  and  _257
REMARK  111  A    between atoms: _256  and  _259
REMARK  112  A    between atoms: _259  and  _260
REMARK  113  A    between atoms: _260  and  _261
REMARK  114  A    between atoms: _263  and  _265
REMARK  115  A    between atoms: _265  and  _266
REMARK  116  A    between atoms: _265  and  _268
REMARK  117  A    between atoms: _268  and  _269
REMARK  118  A    between atoms: _279  and  _281
REMARK  119  A    between atoms: _281  and  _282
REMARK  120  A    between atoms: _281  and  _284
REMARK  121  A    between atoms: _284  and  _285
REMARK  122  A    between atoms: _288  and  _290
REMARK  123  A    between atoms: _290  and  _291
REMARK  124  A    between atoms: _290  and  _293
REMARK  125  A    between atoms: _293  and  _294
REMARK  126  A    between atoms: _294  and  _295
REMARK  127  A    between atoms: _300  and  _302
REMARK  128  A    between atoms: _302  and  _303
REMARK  129  A    between atoms: _302  and  _305
REMARK  130  A    between atoms: _305  and  _306
REMARK  131  A    between atoms: _309  and  _311
REMARK  132  A    between atoms: _311  and  _312
REMARK  133  A    between atoms: _311  and  _314
REMARK  134  A    between atoms: _314  and  _315
REMARK  135  A    between atoms: _315  and  _316
REMARK  136  A    between atoms: _321  and  _323
REMARK  137  A    between atoms: _323  and  _324
REMARK  138  A    between atoms: _323  and  _326
REMARK  139  A    between atoms: _326  and  _327
REMARK  140  A    between atoms: _333  and  _335
REMARK  141  A    between atoms: _335  and  _336
REMARK  142  A    between atoms: _335  and  _338
REMARK  143  A    between atoms: _340  and  _342
REMARK  144  A    between atoms: _342  and  _343
REMARK  145  A    between atoms: _342  and  _345
REMARK  146  A    between atoms: _345  and  _346
REMARK  147  A    between atoms: _346  and  _347
REMARK  148  A    between atoms: _349  and  _351
REMARK  149  A    between atoms: _351  and  _352
REMARK  150  A    between atoms: _351  and  _354
REMARK  151  A    between atoms: _354  and  _355
REMARK  152  A    between atoms: _360  and  _362
REMARK  153  A    between atoms: _362  and  _363
REMARK  154  A    between atoms: _365  and  _367
REMARK  155  A    between atoms: _367  and  _368
REMARK  156  A    between atoms: _367  and  _370
REMARK  157  A    between atoms: _373  and  _375
REMARK  158  A    between atoms: _375  and  _376
REMARK  159  A    between atoms: _375  and  _378
REMARK  160  A    between atoms: _378  and  _379
REMARK  161  A    between atoms: _379  and  _380
REMARK  162  A    between atoms: _383  and  _385
REMARK  163  A    between atoms: _385  and  _386
REMARK  164  A    between atoms: _385  and  _388
REMARK  165  A    between atoms: _388  and  _389
REMARK  166  A    between atoms: _392  and  _394
REMARK  167  A    between atoms: _394  and  _395
REMARK  168  A    between atoms: _394  and  _397
REMARK  169  A    between atoms: _397  and  _398
REMARK  170  A    between atoms: _400  and  _402
REMARK  171  A    between atoms: _402  and  _403
REMARK  172  A    between atoms: _402  and  _405
REMARK  173  A    between atoms: _405  and  _406
REMARK  174  A    between atoms: _416  and  _418
REMARK  175  A    between atoms: _418  and  _419
REMARK  176  A    between atoms: _418  and  _421
REMARK  177  A    between atoms: _421  and  _422
REMARK  178  A    between atoms: _424  and  _426
REMARK  179  A    between atoms: _426  and  _427
REMARK  180  A    between atoms: _426  and  _429
REMARK  181  A    between atoms: _429  and  _430
REMARK  182  A    between atoms: _430  and  _431
REMARK  183  A    between atoms: _434  and  _436
REMARK  184  A    between atoms: _436  and  _437
REMARK  185  A    between atoms: _436  and  _439
REMARK  186  A    between atoms: _439  and  _440
REMARK  187  A    between atoms: _440  and  _441
REMARK  188  A    between atoms: _441  and  _442
REMARK                            x       y       z     vdW  Elec       q    Type
REMARK                         _______ _______ _______ _____ _____    ______ ____
ROOT
ATOM      1  C   ASN A   1     -14.512 -34.866 -24.999  0.00  0.00    +0.239 C 
ATOM      2  O   ASN A   1     -13.494 -35.007 -24.311  0.00  0.00    -0.274 OA
ATOM      3  N   VAL A   2     -15.713 -34.584 -24.496  0.00  0.00    -0.298 N 
ATOM      4  H   VAL A   2     -16.532 -34.562 -25.137  0.00  0.00    +0.150 HD
ENDROOT
BRANCH   1   5
ATOM      5  CA  ASN A   1     -14.444 -35.036 -26.516  0.00  0.00    +0.154 C 
BRANCH   5   6
ATOM      6  N   ASN A   1     -14.882 -36.360 -26.904  0.00  0.00    -0.238 NA
ATOM      7  H   ASN A   1     -15.873 -36.497 -27.189  0.00  0.00    +0.142 HD
ENDBRANCH   5   6
BRANCH   5   8
ATOM      8  CB  ASN A   1     -15.265 -33.956 -27.237  0.00  0.00    +0.111 C 
BRANCH   8   9
ATOM      9  CG  ASN A   1     -14.870 -32.547 -26.816  0.00  0.00    +0.221 C 
ATOM     10  OD1 ASN A   1     -13.983 -32.365 -25.979  0.00  0.00    -0.275 OA
ATOM     11  ND2 ASN A   1     -15.528 -31.546 -27.393  0.00  0.00    -0.329 N 
ATOM     12 HD21 ASN A   1     -15.301 -30.562 -27.143  0.00  0.00    +0.145 HD
ATOM     13 HD22 ASN A   1     -16.269 -31.747 -28.094  0.00  0.00    +0.145 HD
ENDBRANCH   8   9
ENDBRANCH   5   8
ENDBRANCH   1   5
BRANCH   3  14
ATOM     14  CA  VAL A   2     -15.923 -34.304 -23.075  0.00  0.00    +0.137 C 
BRANCH  14  15
ATOM     15  CB  VAL A   2     -17.001 -33.193 -22.869  0.00  0.00    +0.026 C 
ATOM     16  CG2 VAL A   2     -17.272 -32.952 -21.387  0.00  0.00    +0.002 C 
ATOM     17  CG1 VAL A   2     -16.564 -31.894 -23.537  0.00  0.00    +0.002 C 
ENDBRANCH  14  15
BRANCH  14  18
ATOM     18  C   VAL A   2     -16.282 -35.562 -22.276  0.00  0.00    +0.227 C 
ATOM     19  O   VAL A   2     -15.653 -35.858 -21.259  0.00  0.00    -0.286 OA
ENDBRANCH  14  18
ENDBRANCH   3  14
TORSDOF 7
REMARK  Name = ../refined-set-2016/3t08/3t08_pocket.pdb
REMARK  188 active torsions:
REMARK  status: ('A' for Active; 'I' for Inactive)
REMARK    1  A    between atoms: _1  and  _3
REMARK    2  A    between atoms: _3  and  _4
REMARK    3  A    between atoms: _3  and  _6
REMARK    4  A    between atoms: _6  and  _7
REMARK    5  A    between atoms: _12  and  _13
REMARK    6  A    between atoms: _15  and  _17
REMARK    7  A    between atoms: _17  and  _18
REMARK    8  A    between atoms: _17  and  _20
REMARK    9  A    between atoms: _20  and  _21
REMARK   10  A    between atoms: _26  and  _28
REMARK   11  A    between atoms: _28  and  _29
REMARK   12  A    between atoms: _28  and  _31
REMARK   13  A    between atoms: _34  and  _36
REMARK   14  A    between atoms: _36  and  _37
REMARK   15  A    between atoms: _36  and  _39
REMARK   16  A    between atoms: _39  and  _40
REMARK   17  A    between atoms: _43  and  _45
REMARK   18  A    between atoms: _45  and  _46
REMARK   19  A    between atoms: _45  and  _48
REMARK   20  A    between atoms: _48  and  _49
REMARK   21  A    between atoms: _49  and  _50
REMARK   22  A    between atoms: _55  and  _57
REMARK   23  A    between atoms: _57  and  _58
REMARK   24  A    between atoms: _57  and  _60
REMARK   25  A    between atoms: _60  and  _61
REMARK   26  A    between atoms: _64  and  _66
REMARK   27  A    between atoms: _66  and  _67
REMARK   28  A    between atoms: _66  and  _69
REMARK   29  A    between atoms: _69  and  _70
REMARK   30  A    between atoms: _70  and  _71
REMARK   31  A    between atoms: _73  and  _75
REMARK   32  A    between atoms: _75  and  _76
REMARK   33  A    between atoms: _75  and  _78
REMARK   34  A    between atoms: _78  and  _79
REMARK   35  A    between atoms: _84  and  _86
REMARK   36  A    between atoms: _86  and  _87
REMARK   37  A    between atoms: _86  and  _89
REMARK   38  A    between atoms: _89  and  _90
REMARK   39  A    between atoms: _95  and  _97
REMARK   40  A    between atoms: _97  and  _98
REMARK   41  A    between atoms: _97  and  _100
REMARK   42  A    between atoms: _100  and  _101
REMARK   43  A    between atoms: _101  and  _102
REMARK   44  A    between atoms: _102  and  _103
REMARK   45  A    between atoms: _112  and  _114
REMARK   46  A    between atoms: _114  and  _115
REMARK   47  A    between atoms: _114  and  _117
REMARK   48  A    between atoms: _117  and  _118
REMARK   49  A    between atoms: _123  and  _125
REMARK   50  A    between atoms: _125  and  _126
REMARK   51  A    between atoms: _125  and  _128
REMARK   52  A    between atoms: _128  and  _129
REMARK   53  A    between atoms: _129  and  _130
REMARK   54  A    between atoms: _133  and  _135
REMARK   55  A    between atoms: _135  and  _136
REMARK   56  A    between atoms: _135  and  _138
REMARK   57  A    between atoms: _138  and  _139
REMARK   58  A    between atoms: _140  and  MG_451
REMARK   59  A    between atoms: _144  and  _146
REMARK   60  A    between atoms: _146  and  _147
REMARK   61  A    between atoms: _146  and  _149
REMARK   62  A    between atoms: _149  and  _150
REMARK   63  A    between atoms: _150  and  _151
REMARK   64  A    between atoms: _153  and  _155
REMARK   65  A    between atoms: _155  and  _156
REMARK   66  A    between atoms: _155  and  _158
REMARK   67  A    between atoms: _158  and  _159
REMARK   68  A    between atoms: _164  and  _166
REMARK   69  A    between atoms: _166  and  _167
REMARK   70  A    between atoms: _166  and  _169
REMARK   71  A    between atoms: _169  and  _170
REMARK   72  A    between atoms: _170  and  _171
REMARK   73  A    between atoms: _174  and  _176
REMARK   74  A    between atoms: _176  and  _177
REMARK   75  A    between atoms: _176  and  _179
REMARK   76  A    between atoms: _179  and  _180
REMARK   77  A    between atoms: _180  and  _181
REMARK   78  A    between atoms: _184  and  _186
REMARK   79  A    between atoms: _186  and  _187
REMARK   80  A    between atoms: _186  and  _189
REMARK   81  A    between atoms: _189  and  _190
REMARK   82  A    between atoms: _190  and  _191
REMARK   83  A    between atoms: _193  and  _195
REMARK   84  A    between atoms: _195  and  _196
REMARK   85  A    between atoms: _195  and  _198
REMARK   86  A    between atoms: _198  and  _199
REMARK   87  A    between atoms: _204  and  _205
REMARK   88  A    between atoms: _207  and  _209
REMARK   89  A    between atoms: _209  and  _210
REMARK   90  A    between atoms: _209  and  _212
REMARK   91  A    between atoms: _212  and  _213
REMARK   92  A    between atoms: _213  and  _214
REMARK   93  A    between atoms: _214  and  _215
REMARK   94  A    between atoms: _215  and  _216
REMARK   95  A    between atoms: _220  and  _222
REMARK   96  A    between atoms: _222  and  _223
REMARK   97  A    between atoms: _222  and  _225
REMARK   98  A    between atoms: _227  and  _229
REMARK   99  A    between atoms: _229  and  _230
REMARK  100  A    between atoms: _229  and  _232
REMARK  101  A    between atoms: _232  and  _233
REMARK  102  A    between atoms: _233  and  _234
REMARK  103  A    between atoms: _237  and  _239
REMARK  104  A    between atoms: _239  and  _240
REMARK  105  A    between atoms: _239  and  _242
REMARK  106  A    between atoms: _242  and  _243
REMARK  107  A    between atoms: _248  and  _250
REMARK  108  A    between atoms: _250  and  _251
REMARK  109  A    between atoms: _254  and  _256
REMARK  110  A    between atoms: _256  and  _257
REMARK  111  A    between atoms: _256  and  _259
REMARK  112  A    between atoms: _259  and  _260
REMARK  113  A    between atoms: _260  and  _261
REMARK  114  A    between atoms: _263  and  _265
REMARK  115  A    between atoms: _265  and  _266
REMARK  116  A    between atoms: _265  and  _268
REMARK  117  A    between atoms: _268  and  _269
REMARK  118  A    between atoms: _279  and  _281
REMARK  119  A    between atoms: _281  and  _282
REMARK  120  A    between atoms: _281  and  _284
REMARK  121  A    between atoms: _284  and  _285
REMARK  122  A    between atoms: _288  and  _290
REMARK  123  A    between atoms: _290  and  _291
REMARK  124  A    between atoms: _290  and  _293
REMARK  125  A    between atoms: _293  and  _294
REMARK  126  A    between atoms: _294  and  _295
REMARK  127  A    between atoms: _300  and  _302
REMARK  128  A    between atoms: _302  and  _303
REMARK  129  A    between atoms: _302  and  _305
REMARK  130  A    between atoms: _305  and  _306
REMARK  131  A    between atoms: _309  and  _311
REMARK  132  A    between atoms: _311  and  _312
REMARK  133  A    between atoms: _311  and  _314
REMARK  134  A    between atoms: _314  and  _315
REMARK  135  A    between atoms: _315  and  _316
REMARK  136  A    between atoms: _321  and  _323
REMARK  137  A    between atoms: _323  and  _324
REMARK  138  A    between atoms: _323  and  _326
REMARK  139  A    between atoms: _326  and  _327
REMARK  140  A    between atoms: _333  and  _335
REMARK  141  A    between atoms: _335  and  _336
REMARK  142  A    between atoms: _335  and  _338
REMARK  143  A    between atoms: _340  and  _342
REMARK  144  A    between atoms: _342  and  _343
REMARK  145  A    between atoms: _342  and  _345
REMARK  146  A    between atoms: _345  and  _346
REMARK  147  A    between atoms: _346  and  _347
REMARK  148  A    between atoms: _349  and  _351
REMARK  149  A    between atoms: _351  and  _352
REMARK  150  A    between atoms: _351  and  _354
REMARK  151  A    between atoms: _354  and  _355
REMARK  152  A    between atoms: _360  and  _362
REMARK  153  A    between atoms: _362  and  _363
REMARK  154  A    between atoms: _365  and  _367
REMARK  155  A    between atoms: _367  and  _368
REMARK  156  A    between atoms: _367  and  _370
REMARK  157  A    between atoms: _373  and  _375
REMARK  158  A    between atoms: _375  and  _376
REMARK  159  A    between atoms: _375  and  _378
REMARK  160  A    between atoms: _378  and  _379
REMARK  161  A    between atoms: _379  and  _380
REMARK  162  A    between atoms: _383  and  _385
REMARK  163  A    between atoms: _385  and  _386
REMARK  164  A    between atoms: _385  and  _388
REMARK  165  A    between atoms: _388  and  _389
REMARK  166  A    between atoms: _392  and  _394
REMARK  167  A    between atoms: _394  and  _395
REMARK  168  A    between atoms: _394  and  _397
REMARK  169  A    between atoms: _397  and  _398
REMARK  170  A    between atoms: _400  and  _402
REMARK  171  A    between atoms: _402  and  _403
REMARK  172  A    between atoms: _402  and  _405
REMARK  173  A    between atoms: _405  and  _406
REMARK  174  A    between atoms: _416  and  _418
REMARK  175  A    between atoms: _418  and  _419
REMARK  176  A    between atoms: _418  and  _421
REMARK  177  A    between atoms: _421  and  _422
REMARK  178  A    between atoms: _424  and  _426
REMARK  179  A    between atoms: _426  and  _427
REMARK  180  A    between atoms: _426  and  _429
REMARK  181  A    between atoms: _429  and  _430
REMARK  182  A    between atoms: _430  and  _431
REMARK  183  A    between atoms: _434  and  _436
REMARK  184  A    between atoms: _436  and  _437
REMARK  185  A    between atoms: _436  and  _439
REMARK  186  A    between atoms: _439  and  _440
REMARK  187  A    between atoms: _440  and  _441
REMARK  188  A    between atoms: _441  and  _442
REMARK                            x       y       z     vdW  Elec       q    Type
REMARK                         _______ _______ _______ _____ _____    ______ ____
ROOT
ATOM      1  C   GLN A   2      -9.158 -34.944 -24.224  0.00  0.00    +0.241 C 
ATOM      2  O   GLN A   2      -9.450 -36.111 -24.485  0.00  0.00    -0.273 OA
ATOM      3  N   ASP A   3      -9.507 -33.909 -24.980  0.00  0.00    -0.297 N 
ATOM      4  H   ASP A   3      -9.226 -32.956 -24.672  0.00  0.00    +0.150 HD
ENDROOT
BRANCH   3   5
ATOM      5  CA  ASP A   3     -10.257 -34.039 -26.209  0.00  0.00    +0.160 C 
BRANCH   5   6
ATOM      6  C   ASP A   3      -9.335 -34.548 -27.320  0.00  0.00    +0.241 C 
ATOM      7  N   MET A   4      -9.207 -35.872 -27.386  0.00  0.00    -0.298 N 
ATOM      8  H   MET A   4      -9.761 -36.457 -26.728  0.00  0.00    +0.150 HD
ATOM      9  O   ASP A   3      -8.750 -33.771 -28.079  0.00  0.00    -0.273 OA
BRANCH   7  10
ATOM     10  CA  MET A   4      -8.329 -36.540 -28.336  0.00  0.00    +0.138 C 
BRANCH  10  11
ATOM     11  C   MET A   4      -8.711 -38.015 -28.471  0.00  0.00    +0.227 C 
ATOM     12  O   MET A   4      -9.562 -38.507 -27.731  0.00  0.00    -0.286 OA
ENDBRANCH  10  11
BRANCH  10  13
ATOM     13  CB  MET A   4      -6.867 -36.409 -27.894  0.00  0.00    +0.039 C 
BRANCH  13  14
ATOM     14  CG  MET A   4      -6.598 -36.897 -26.470  0.00  0.00    +0.060 C 
BRANCH  14  15
ATOM     15  SD  MET A   4      -4.882 -36.648 -25.988  0.00  0.00    -0.139 S 
ATOM     16  CE  MET A   4      -4.705 -37.842 -24.670  0.00  0.00    +0.069 C 
ENDBRANCH  14  15
ENDBRANCH  13  14
ENDBRANCH  10  13
ENDBRANCH   7  10
ENDBRANCH   5   6
BRANCH   5  17
ATOM     17  CB  ASP A   3     -10.884 -32.686 -26.553  0.00  0.00    +0.143 C 
BRANCH  17  18
ATOM     18  CG  ASP A   3     -11.571 -32.666 -27.903  0.00  0.00    +0.367 C 
ATOM     19  OD2 ASP A   3     -11.741 -31.551 -28.425  0.00  0.00    -0.246 OA
ATOM     20  OD1 ASP A   3     -11.955 -33.732 -28.435  0.00  0.00    -0.246 OA
ENDBRANCH  17  18
ENDBRANCH   5  17
ENDBRANCH   3   5
BRANCH   1  21
ATOM     21  CA  GLN A   2      -8.333 -34.596 -22.991  0.00  0.00    +0.149 C 
BRANCH  21  24
ATOM     22  C   ASP A   1      -9.818 -35.669 -21.384  0.00  0.00    +0.239 C 
ATOM     23  O   ASP A   1     -10.787 -35.012 -21.779  0.00  0.00    -0.274 OA
ATOM     24  N   GLN A   2      -8.593 -35.514 -21.879  0.00  0.00    -0.297 N 
ATOM     25  H   GLN A   2      -7.805 -36.055 -21.469  0.00  0.00    +0.150 HD
BRANCH  22  26
ATOM     26  CA  ASP A   1      -9.988 -36.738 -20.300  0.00  0.00    +0.156 C 
BRANCH  26  27
ATOM     27  N   ASP A   1      -8.820 -36.916 -19.451  0.00  0.00    -0.238 NA
ATOM     28  H   ASP A   1      -8.684 -36.278 -18.641  0.00  0.00    +0.142 HD
ENDBRANCH  26  27
BRANCH  26  29
ATOM     29  CB  ASP A   1     -11.212 -36.430 -19.443  0.00  0.00    +0.140 C 
BRANCH  29  30
ATOM     30  CG  ASP A   1     -12.503 -36.620 -20.192  0.00  0.00    +0.367 C 
ATOM     31  OD2 ASP A   1     -13.425 -35.819 -19.941  0.00  0.00    -0.246 OA
ATOM     32  OD1 ASP A   1     -12.586 -37.550 -21.040  0.00  0.00    -0.246 OA
ENDBRANCH  29  30
ENDBRANCH  26  29
ENDBRANCH  22  26
ENDBRANCH  21  24
BRANCH  21  33
ATOM     33  CB  GLN A   2      -6.854 -34.583 -23.376  0.00  0.00    +0.039 C 
BRANCH  33  34
ATOM     34  CG  GLN A   2      -5.937 -33.937 -22.366  0.00  0.00    +0.087 C 
BRANCH  34  35
ATOM     35  CD  GLN A   2      -5.398 -34.915 -21.343  0.00  0.00    +0.219 C 
ATOM     36  NE2 GLN A   2      -4.371 -34.495 -20.610  0.00  0.00    -0.329 N 
ATOM     37 HE21 GLN A   2      -3.954 -35.121 -19.892  0.00  0.00    +0.145 HD
ATOM     38 HE22 GLN A   2      -3.985 -33.540 -20.755  0.00  0.00    +0.145 HD
ATOM     39  OE1 GLN A   2      -5.894 -36.036 -21.213  0.00  0.00    -0.275 OA
ENDBRANCH  34  35
ENDBRANCH  33  34
ENDBRANCH  21  33
ENDBRANCH   1  21
TORSDOF 18
REMARK  Name = ../refined-set-2016/3t08/3t08_pocket.pdb
REMARK  188 active torsions:
REMARK  status: ('A' for Active; 'I' for Inactive)
REMARK    1  A    between atoms: _1  and  _3
REMARK    2  A    between atoms: _3  and  _4
REMARK    3  A    between atoms: _3  and  _6
REMARK    4  A    between atoms: _6  and  _7
REMARK    5  A    between atoms: _12  and  _13
REMARK    6  A    between atoms: _15  and  _17
REMARK    7  A    between atoms: _17  and  _18
REMARK    8  A    between atoms: _17  and  _20
REMARK    9  A    between atoms: _20  and  _21
REMARK   10  A    between atoms: _26  and  _28
REMARK   11  A    between atoms: _28  and  _29
REMARK   12  A    between atoms: _28  and  _31
REMARK   13  A    between atoms: _34  and  _36
REMARK   14  A    between atoms: _36  and  _37
REMARK   15  A    between atoms: _36  and  _39
REMARK   16  A    between atoms: _39  and  _40
REMARK   17  A    between atoms: _43  and  _45
REMARK   18  A    between atoms: _45  and  _46
REMARK   19  A    between atoms: _45  and  _48
REMARK   20  A    between atoms: _48  and  _49
REMARK   21  A    between atoms: _49  and  _50
REMARK   22  A    between atoms: _55  and  _57
REMARK   23  A    between atoms: _57  and  _58
REMARK   24  A    between atoms: _57  and  _60
REMARK   25  A    between atoms: _60  and  _61
REMARK   26  A    between atoms: _64  and  _66
REMARK   27  A    between atoms: _66  and  _67
REMARK   28  A    between atoms: _66  and  _69
REMARK   29  A    between atoms: _69  and  _70
REMARK   30  A    between atoms: _70  and  _71
REMARK   31  A    between atoms: _73  and  _75
REMARK   32  A    between atoms: _75  and  _76
REMARK   33  A    between atoms: _75  and  _78
REMARK   34  A    between atoms: _78  and  _79
REMARK   35  A    between atoms: _84  and  _86
REMARK   36  A    between atoms: _86  and  _87
REMARK   37  A    between atoms: _86  and  _89
REMARK   38  A    between atoms: _89  and  _90
REMARK   39  A    between atoms: _95  and  _97
REMARK   40  A    between atoms: _97  and  _98
REMARK   41  A    between atoms: _97  and  _100
REMARK   42  A    between atoms: _100  and  _101
REMARK   43  A    between atoms: _101  and  _102
REMARK   44  A    between atoms: _102  and  _103
REMARK   45  A    between atoms: _112  and  _114
REMARK   46  A    between atoms: _114  and  _115
REMARK   47  A    between atoms: _114  and  _117
REMARK   48  A    between atoms: _117  and  _118
REMARK   49  A    between atoms: _123  and  _125
REMARK   50  A    between atoms: _125  and  _126
REMARK   51  A    between atoms: _125  and  _128
REMARK   52  A    between atoms: _128  and  _129
REMARK   53  A    between atoms: _129  and  _130
REMARK   54  A    between atoms: _133  and  _135
REMARK   55  A    between atoms: _135  and  _136
REMARK   56  A    between atoms: _135  and  _138
REMARK   57  A    between atoms: _138  and  _139
REMARK   58  A    between atoms: _140  and  MG_451
REMARK   59  A    between atoms: _144  and  _146
REMARK   60  A    between atoms: _146  and  _147
REMARK   61  A    between atoms: _146  and  _149
REMARK   62  A    between atoms: _149  and  _150
REMARK   63  A    between atoms: _150  and  _151
REMARK   64  A    between atoms: _153  and  _155
REMARK   65  A    between atoms: _155  and  _156
REMARK   66  A    between atoms: _155  and  _158
REMARK   67  A    between atoms: _158  and  _159
REMARK   68  A    between atoms: _164  and  _166
REMARK   69  A    between atoms: _166  and  _167
REMARK   70  A    between atoms: _166  and  _169
REMARK   71  A    between atoms: _169  and  _170
REMARK   72  A    between atoms: _170  and  _171
REMARK   73  A    between atoms: _174  and  _176
REMARK   74  A    between atoms: _176  and  _177
REMARK   75  A    between atoms: _176  and  _179
REMARK   76  A    between atoms: _179  and  _180
REMARK   77  A    between atoms: _180  and  _181
REMARK   78  A    between atoms: _184  and  _186
REMARK   79  A    between atoms: _186  and  _187
REMARK   80  A    between atoms: _186  and  _189
REMARK   81  A    between atoms: _189  and  _190
REMARK   82  A    between atoms: _190  and  _191
REMARK   83  A    between atoms: _193  and  _195
REMARK   84  A    between atoms: _195  and  _196
REMARK   85  A    between atoms: _195  and  _198
REMARK   86  A    between atoms: _198  and  _199
REMARK   87  A    between atoms: _204  and  _205
REMARK   88  A    between atoms: _207  and  _209
REMARK   89  A    between atoms: _209  and  _210
REMARK   90  A    between atoms: _209  and  _212
REMARK   91  A    between atoms: _212  and  _213
REMARK   92  A    between atoms: _213  and  _214
REMARK   93  A    between atoms: _214  and  _215
REMARK   94  A    between atoms: _215  and  _216
REMARK   95  A    between atoms: _220  and  _222
REMARK   96  A    between atoms: _222  and  _223
REMARK   97  A    between atoms: _222  and  _225
REMARK   98  A    between atoms: _227  and  _229
REMARK   99  A    between atoms: _229  and  _230
REMARK  100  A    between atoms: _229  and  _232
REMARK  101  A    between atoms: _232  and  _233
REMARK  102  A    between atoms: _233  and  _234
REMARK  103  A    between atoms: _237  and  _239
REMARK  104  A    between atoms: _239  and  _240
REMARK  105  A    between atoms: _239  and  _242
REMARK  106  A    between atoms: _242  and  _243
REMARK  107  A    between atoms: _248  and  _250
REMARK  108  A    between atoms: _250  and  _251
REMARK  109  A    between atoms: _254  and  _256
REMARK  110  A    between atoms: _256  and  _257
REMARK  111  A    between atoms: _256  and  _259
REMARK  112  A    between atoms: _259  and  _260
REMARK  113  A    between atoms: _260  and  _261
REMARK  114  A    between atoms: _263  and  _265
REMARK  115  A    between atoms: _265  and  _266
REMARK  116  A    between atoms: _265  and  _268
REMARK  117  A    between atoms: _268  and  _269
REMARK  118  A    between atoms: _279  and  _281
REMARK  119  A    between atoms: _281  and  _282
REMARK  120  A    between atoms: _281  and  _284
REMARK  121  A    between atoms: _284  and  _285
REMARK  122  A    between atoms: _288  and  _290
REMARK  123  A    between atoms: _290  and  _291
REMARK  124  A    between atoms: _290  and  _293
REMARK  125  A    between atoms: _293  and  _294
REMARK  126  A    between atoms: _294  and  _295
REMARK  127  A    between atoms: _300  and  _302
REMARK  128  A    between atoms: _302  and  _303
REMARK  129  A    between atoms: _302  and  _305
REMARK  130  A    between atoms: _305  and  _306
REMARK  131  A    between atoms: _309  and  _311
REMARK  132  A    between atoms: _311  and  _312
REMARK  133  A    between atoms: _311  and  _314
REMARK  134  A    between atoms: _314  and  _315
REMARK  135  A    between atoms: _315  and  _316
REMARK  136  A    between atoms: _321  and  _323
REMARK  137  A    between atoms: _323  and  _324
REMARK  138  A    between atoms: _323  and  _326
REMARK  139  A    between atoms: _326  and  _327
REMARK  140  A    between atoms: _333  and  _335
REMARK  141  A    between atoms: _335  and  _336
REMARK  142  A    between atoms: _335  and  _338
REMARK  143  A    between atoms: _340  and  _342
REMARK  144  A    between atoms: _342  and  _343
REMARK  145  A    between atoms: _342  and  _345
REMARK  146  A    between atoms: _345  and  _346
REMARK  147  A    between atoms: _346  and  _347
REMARK  148  A    between atoms: _349  and  _351
REMARK  149  A    between atoms: _351  and  _352
REMARK  150  A    between atoms: _351  and  _354
REMARK  151  A    between atoms: _354  and  _355
REMARK  152  A    between atoms: _360  and  _362
REMARK  153  A    between atoms: _362  and  _363
REMARK  154  A    between atoms: _365  and  _367
REMARK  155  A    between atoms: _367  and  _368
REMARK  156  A    between atoms: _367  and  _370
REMARK  157  A    between atoms: _373  and  _375
REMARK  158  A    between atoms: _375  and  _376
REMARK  159  A    between atoms: _375  and  _378
REMARK  160  A    between atoms: _378  and  _379
REMARK  161  A    between atoms: _379  and  _380
REMARK  162  A    between atoms: _383  and  _385
REMARK  163  A    between atoms: _385  and  _386
REMARK  164  A    between atoms: _385  and  _388
REMARK  165  A    between atoms: _388  and  _389
REMARK  166  A    between atoms: _392  and  _394
REMARK  167  A    between atoms: _394  and  _395
REMARK  168  A    between atoms: _394  and  _397
REMARK  169  A    between atoms: _397  and  _398
REMARK  170  A    between atoms: _400  and  _402
REMARK  171  A    between atoms: _402  and  _403
REMARK  172  A    between atoms: _402  and  _405
REMARK  173  A    between atoms: _405  and  _406
REMARK  174  A    between atoms: _416  and  _418
REMARK  175  A    between atoms: _418  and  _419
REMARK  176  A    between atoms: _418  and  _421
REMARK  177  A    between atoms: _421  and  _422
REMARK  178  A    between atoms: _424  and  _426
REMARK  179  A    between atoms: _426  and  _427
REMARK  180  A    between atoms: _426  and  _429
REMARK  181  A    between atoms: _429  and  _430
REMARK  182  A    between atoms: _430  and  _431
REMARK  183  A    between atoms: _434  and  _436
REMARK  184  A    between atoms: _436  and  _437
REMARK  185  A    between atoms: _436  and  _439
REMARK  186  A    between atoms: _439  and  _440
REMARK  187  A    between atoms: _440  and  _441
REMARK  188  A    between atoms: _441  and  _442
REMARK                            x       y       z     vdW  Elec       q    Type
REMARK                         _______ _______ _______ _____ _____    ______ ____
ROOT
ATOM      1  CB  ASN A   1      -3.326 -25.807 -28.950  0.00  0.00    +0.110 C 
ENDROOT
BRANCH   1   2
ATOM      2  CG  ASN A   1      -3.664 -24.889 -27.812  0.00  0.00    +0.221 C 
ATOM      3  OD1 ASN A   1      -3.397 -25.205 -26.656  0.00  0.00    -0.275 OA
ATOM      4  ND2 ASN A   1      -4.267 -23.744 -28.130  0.00  0.00    -0.329 N 
ATOM      5 HD21 ASN A   1      -4.533 -23.071 -27.383  0.00  0.00    +0.145 HD
ATOM      6 HD22 ASN A   1      -4.471 -23.523 -29.125  0.00  0.00    +0.145 HD
ENDBRANCH   1   2
BRANCH   1   7
ATOM      7  CA  ASN A   1      -1.914 -25.595 -29.464  0.00  0.00    +0.142 C 
BRANCH   7   8
ATOM      8  N   ASN A   1      -1.846 -24.354 -30.223  0.00  0.00    -0.239 NA
ATOM      9  H   ASN A   1      -2.725 -23.963 -30.619  0.00  0.00    +0.142 HD
ENDBRANCH   7   8
BRANCH   7  10
ATOM     10  C   ASN A   1      -1.538 -26.768 -30.344  0.00  0.00    +0.225 C 
ATOM     11  O   ASN A   1      -1.988 -26.856 -31.482  0.00  0.00    -0.287 OA
ENDBRANCH   7  10
ENDBRANCH   1   7
TORSDOF 4
REMARK  Name = ../refined-set-2016/3t08/3t08_pocket.pdb
REMARK  188 active torsions:
REMARK  status: ('A' for Active; 'I' for Inactive)
REMARK    1  A    between atoms: _1  and  _3
REMARK    2  A    between atoms: _3  and  _4
REMARK    3  A    between atoms: _3  and  _6
REMARK    4  A    between atoms: _6  and  _7
REMARK    5  A    between atoms: _12  and  _13
REMARK    6  A    between atoms: _15  and  _17
REMARK    7  A    between atoms: _17  and  _18
REMARK    8  A    between atoms: _17  and  _20
REMARK    9  A    between atoms: _20  and  _21
REMARK   10  A    between atoms: _26  and  _28
REMARK   11  A    between atoms: _28  and  _29
REMARK   12  A    between atoms: _28  and  _31
REMARK   13  A    between atoms: _34  and  _36
REMARK   14  A    between atoms: _36  and  _37
REMARK   15  A    between atoms: _36  and  _39
REMARK   16  A    between atoms: _39  and  _40
REMARK   17  A    between atoms: _43  and  _45
REMARK   18  A    between atoms: _45  and  _46
REMARK   19  A    between atoms: _45  and  _48
REMARK   20  A    between atoms: _48  and  _49
REMARK   21  A    between atoms: _49  and  _50
REMARK   22  A    between atoms: _55  and  _57
REMARK   23  A    between atoms: _57  and  _58
REMARK   24  A    between atoms: _57  and  _60
REMARK   25  A    between atoms: _60  and  _61
REMARK   26  A    between atoms: _64  and  _66
REMARK   27  A    between atoms: _66  and  _67
REMARK   28  A    between atoms: _66  and  _69
REMARK   29  A    between atoms: _69  and  _70
REMARK   30  A    between atoms: _70  and  _71
REMARK   31  A    between atoms: _73  and  _75
REMARK   32  A    between atoms: _75  and  _76
REMARK   33  A    between atoms: _75  and  _78
REMARK   34  A    between atoms: _78  and  _79
REMARK   35  A    between atoms: _84  and  _86
REMARK   36  A    between atoms: _86  and  _87
REMARK   37  A    between atoms: _86  and  _89
REMARK   38  A    between atoms: _89  and  _90
REMARK   39  A    between atoms: _95  and  _97
REMARK   40  A    between atoms: _97  and  _98
REMARK   41  A    between atoms: _97  and  _100
REMARK   42  A    between atoms: _100  and  _101
REMARK   43  A    between atoms: _101  and  _102
REMARK   44  A    between atoms: _102  and  _103
REMARK   45  A    between atoms: _112  and  _114
REMARK   46  A    between atoms: _114  and  _115
REMARK   47  A    between atoms: _114  and  _117
REMARK   48  A    between atoms: _117  and  _118
REMARK   49  A    between atoms: _123  and  _125
REMARK   50  A    between atoms: _125  and  _126
REMARK   51  A    between atoms: _125  and  _128
REMARK   52  A    between atoms: _128  and  _129
REMARK   53  A    between atoms: _129  and  _130
REMARK   54  A    between atoms: _133  and  _135
REMARK   55  A    between atoms: _135  and  _136
REMARK   56  A    between atoms: _135  and  _138
REMARK   57  A    between atoms: _138  and  _139
REMARK   58  A    between atoms: _140  and  MG_451
REMARK   59  A    between atoms: _144  and  _146
REMARK   60  A    between atoms: _146  and  _147
REMARK   61  A    between atoms: _146  and  _149
REMARK   62  A    between atoms: _149  and  _150
REMARK   63  A    between atoms: _150  and  _151
REMARK   64  A    between atoms: _153  and  _155
REMARK   65  A    between atoms: _155  and  _156
REMARK   66  A    between atoms: _155  and  _158
REMARK   67  A    between atoms: _158  and  _159
REMARK   68  A    between atoms: _164  and  _166
REMARK   69  A    between atoms: _166  and  _167
REMARK   70  A    between atoms: _166  and  _169
REMARK   71  A    between atoms: _169  and  _170
REMARK   72  A    between atoms: _170  and  _171
REMARK   73  A    between atoms: _174  and  _176
REMARK   74  A    between atoms: _176  and  _177
REMARK   75  A    between atoms: _176  and  _179
REMARK   76  A    between atoms: _179  and  _180
REMARK   77  A    between atoms: _180  and  _181
REMARK   78  A    between atoms: _184  and  _186
REMARK   79  A    between atoms: _186  and  _187
REMARK   80  A    between atoms: _186  and  _189
REMARK   81  A    between atoms: _189  and  _190
REMARK   82  A    between atoms: _190  and  _191
REMARK   83  A    between atoms: _193  and  _195
REMARK   84  A    between atoms: _195  and  _196
REMARK   85  A    between atoms: _195  and  _198
REMARK   86  A    between atoms: _198  and  _199
REMARK   87  A    between atoms: _204  and  _205
REMARK   88  A    between atoms: _207  and  _209
REMARK   89  A    between atoms: _209  and  _210
REMARK   90  A    between atoms: _209  and  _212
REMARK   91  A    between atoms: _212  and  _213
REMARK   92  A    between atoms: _213  and  _214
REMARK   93  A    between atoms: _214  and  _215
REMARK   94  A    between atoms: _215  and  _216
REMARK   95  A    between atoms: _220  and  _222
REMARK   96  A    between atoms: _222  and  _223
REMARK   97  A    between atoms: _222  and  _225
REMARK   98  A    between atoms: _227  and  _229
REMARK   99  A    between atoms: _229  and  _230
REMARK  100  A    between atoms: _229  and  _232
REMARK  101  A    between atoms: _232  and  _233
REMARK  102  A    between atoms: _233  and  _234
REMARK  103  A    between atoms: _237  and  _239
REMARK  104  A    between atoms: _239  and  _240
REMARK  105  A    between atoms: _239  and  _242
REMARK  106  A    between atoms: _242  and  _243
REMARK  107  A    between atoms: _248  and  _250
REMARK  108  A    between atoms: _250  and  _251
REMARK  109  A    between atoms: _254  and  _256
REMARK  110  A    between atoms: _256  and  _257
REMARK  111  A    between atoms: _256  and  _259
REMARK  112  A    between atoms: _259  and  _260
REMARK  113  A    between atoms: _260  and  _261
REMARK  114  A    between atoms: _263  and  _265
REMARK  115  A    between atoms: _265  and  _266
REMARK  116  A    between atoms: _265  and  _268
REMARK  117  A    between atoms: _268  and  _269
REMARK  118  A    between atoms: _279  and  _281
REMARK  119  A    between atoms: _281  and  _282
REMARK  120  A    between atoms: _281  and  _284
REMARK  121  A    between atoms: _284  and  _285
REMARK  122  A    between atoms: _288  and  _290
REMARK  123  A    between atoms: _290  and  _291
REMARK  124  A    between atoms: _290  and  _293
REMARK  125  A    between atoms: _293  and  _294
REMARK  126  A    between atoms: _294  and  _295
REMARK  127  A    between atoms: _300  and  _302
REMARK  128  A    between atoms: _302  and  _303
REMARK  129  A    between atoms: _302  and  _305
REMARK  130  A    between atoms: _305  and  _306
REMARK  131  A    between atoms: _309  and  _311
REMARK  132  A    between atoms: _311  and  _312
REMARK  133  A    between atoms: _311  and  _314
REMARK  134  A    between atoms: _314  and  _315
REMARK  135  A    between atoms: _315  and  _316
REMARK  136  A    between atoms: _321  and  _323
REMARK  137  A    between atoms: _323  and  _324
REMARK  138  A    between atoms: _323  and  _326
REMARK  139  A    between atoms: _326  and  _327
REMARK  140  A    between atoms: _333  and  _335
REMARK  141  A    between atoms: _335  and  _336
REMARK  142  A    between atoms: _335  and  _338
REMARK  143  A    between atoms: _340  and  _342
REMARK  144  A    between atoms: _342  and  _343
REMARK  145  A    between atoms: _342  and  _345
REMARK  146  A    between atoms: _345  and  _346
REMARK  147  A    between atoms: _346  and  _347
REMARK  148  A    between atoms: _349  and  _351
REMARK  149  A    between atoms: _351  and  _352
REMARK  150  A    between atoms: _351  and  _354
REMARK  151  A    between atoms: _354  and  _355
REMARK  152  A    between atoms: _360  and  _362
REMARK  153  A    between atoms: _362  and  _363
REMARK  154  A    between atoms: _365  and  _367
REMARK  155  A    between atoms: _367  and  _368
REMARK  156  A    between atoms: _367  and  _370
REMARK  157  A    between atoms: _373  and  _375
REMARK  158  A    between atoms: _375  and  _376
REMARK  159  A    between atoms: _375  and  _378
REMARK  160  A    between atoms: _378  and  _379
REMARK  161  A    between atoms: _379  and  _380
REMARK  162  A    between atoms: _383  and  _385
REMARK  163  A    between atoms: _385  and  _386
REMARK  164  A    between atoms: _385  and  _388
REMARK  165  A    between atoms: _388  and  _389
REMARK  166  A    between atoms: _392  and  _394
REMARK  167  A    between atoms: _394  and  _395
REMARK  168  A    between atoms: _394  and  _397
REMARK  169  A    between atoms: _397  and  _398
REMARK  170  A    between atoms: _400  and  _402
REMARK  171  A    between atoms: _402  and  _403
REMARK  172  A    between atoms: _402  and  _405
REMARK  173  A    between atoms: _405  and  _406
REMARK  174  A    between atoms: _416  and  _418
REMARK  175  A    between atoms: _418  and  _419
REMARK  176  A    between atoms: _418  and  _421
REMARK  177  A    between atoms: _421  and  _422
REMARK  178  A    between atoms: _424  and  _426
REMARK  179  A    between atoms: _426  and  _427
REMARK  180  A    between atoms: _426  and  _429
REMARK  181  A    between atoms: _429  and  _430
REMARK  182  A    between atoms: _430  and  _431
REMARK  183  A    between atoms: _434  and  _436
REMARK  184  A    between atoms: _436  and  _437
REMARK  185  A    between atoms: _436  and  _439
REMARK  186  A    between atoms: _439  and  _440
REMARK  187  A    between atoms: _440  and  _441
REMARK  188  A    between atoms: _441  and  _442
REMARK                            x       y       z     vdW  Elec       q    Type
REMARK                         _______ _______ _______ _____ _____    ______ ____
ROOT
ATOM      1  CB  HIS A   1      -2.666 -33.004 -30.010  0.00  0.00    +0.072 C 
ENDROOT
BRANCH   1   2
ATOM      2  CG  HIS A   1      -3.698 -32.843 -28.941  0.00  0.00    +0.082 A 
ATOM      3  ND1 HIS A   1      -3.681 -33.579 -27.775  0.00  0.00    -0.227 NA
ATOM      4  CE1 HIS A   1      -4.708 -33.226 -27.022  0.00  0.00    +0.199 A 
ATOM      5  NE2 HIS A   1      -5.394 -32.296 -27.662  0.00  0.00    -0.221 NA
ATOM      6  CD2 HIS A   1      -4.787 -32.042 -28.868  0.00  0.00    +0.115 A 
ENDBRANCH   1   2
BRANCH   1   7
ATOM      7  CA  HIS A   1      -1.324 -32.348 -29.683  0.00  0.00    +0.139 C 
BRANCH   7   8
ATOM      8  N   HIS A   1      -1.277 -30.976 -30.192  0.00  0.00    -0.239 NA
ATOM      9  H   HIS A   1      -1.979 -30.681 -30.900  0.00  0.00    +0.142 HD
ENDBRANCH   7   8
BRANCH   7  10
ATOM     10  C   HIS A   1      -0.221 -33.171 -30.331  0.00  0.00    +0.224 C 
ATOM     11  O   HIS A   1       0.273 -32.829 -31.408  0.00  0.00    -0.287 OA
ENDBRANCH   7  10
ENDBRANCH   1   7
TORSDOF 4
REMARK  Name = ../refined-set-2016/3t08/3t08_pocket.pdb
REMARK  188 active torsions:
REMARK  status: ('A' for Active; 'I' for Inactive)
REMARK    1  A    between atoms: _1  and  _3
REMARK    2  A    between atoms: _3  and  _4
REMARK    3  A    between atoms: _3  and  _6
REMARK    4  A    between atoms: _6  and  _7
REMARK    5  A    between atoms: _12  and  _13
REMARK    6  A    between atoms: _15  and  _17
REMARK    7  A    between atoms: _17  and  _18
REMARK    8  A    between atoms: _17  and  _20
REMARK    9  A    between atoms: _20  and  _21
REMARK   10  A    between atoms: _26  and  _28
REMARK   11  A    between atoms: _28  and  _29
REMARK   12  A    between atoms: _28  and  _31
REMARK   13  A    between atoms: _34  and  _36
REMARK   14  A    between atoms: _36  and  _37
REMARK   15  A    between atoms: _36  and  _39
REMARK   16  A    between atoms: _39  and  _40
REMARK   17  A    between atoms: _43  and  _45
REMARK   18  A    between atoms: _45  and  _46
REMARK   19  A    between atoms: _45  and  _48
REMARK   20  A    between atoms: _48  and  _49
REMARK   21  A    between atoms: _49  and  _50
REMARK   22  A    between atoms: _55  and  _57
REMARK   23  A    between atoms: _57  and  _58
REMARK   24  A    between atoms: _57  and  _60
REMARK   25  A    between atoms: _60  and  _61
REMARK   26  A    between atoms: _64  and  _66
REMARK   27  A    between atoms: _66  and  _67
REMARK   28  A    between atoms: _66  and  _69
REMARK   29  A    between atoms: _69  and  _70
REMARK   30  A    between atoms: _70  and  _71
REMARK   31  A    between atoms: _73  and  _75
REMARK   32  A    between atoms: _75  and  _76
REMARK   33  A    between atoms: _75  and  _78
REMARK   34  A    between atoms: _78  and  _79
REMARK   35  A    between atoms: _84  and  _86
REMARK   36  A    between atoms: _86  and  _87
REMARK   37  A    between atoms: _86  and  _89
REMARK   38  A    between atoms: _89  and  _90
REMARK   39  A    between atoms: _95  and  _97
REMARK   40  A    between atoms: _97  and  _98
REMARK   41  A    between atoms: _97  and  _100
REMARK   42  A    between atoms: _100  and  _101
REMARK   43  A    between atoms: _101  and  _102
REMARK   44  A    between atoms: _102  and  _103
REMARK   45  A    between atoms: _112  and  _114
REMARK   46  A    between atoms: _114  and  _115
REMARK   47  A    between atoms: _114  and  _117
REMARK   48  A    between atoms: _117  and  _118
REMARK   49  A    between atoms: _123  and  _125
REMARK   50  A    between atoms: _125  and  _126
REMARK   51  A    between atoms: _125  and  _128
REMARK   52  A    between atoms: _128  and  _129
REMARK   53  A    between atoms: _129  and  _130
REMARK   54  A    between atoms: _133  and  _135
REMARK   55  A    between atoms: _135  and  _136
REMARK   56  A    between atoms: _135  and  _138
REMARK   57  A    between atoms: _138  and  _139
REMARK   58  A    between atoms: _140  and  MG_451
REMARK   59  A    between atoms: _144  and  _146
REMARK   60  A    between atoms: _146  and  _147
REMARK   61  A    between atoms: _146  and  _149
REMARK   62  A    between atoms: _149  and  _150
REMARK   63  A    between atoms: _150  and  _151
REMARK   64  A    between atoms: _153  and  _155
REMARK   65  A    between atoms: _155  and  _156
REMARK   66  A    between atoms: _155  and  _158
REMARK   67  A    between atoms: _158  and  _159
REMARK   68  A    between atoms: _164  and  _166
REMARK   69  A    between atoms: _166  and  _167
REMARK   70  A    between atoms: _166  and  _169
REMARK   71  A    between atoms: _169  and  _170
REMARK   72  A    between atoms: _170  and  _171
REMARK   73  A    between atoms: _174  and  _176
REMARK   74  A    between atoms: _176  and  _177
REMARK   75  A    between atoms: _176  and  _179
REMARK   76  A    between atoms: _179  and  _180
REMARK   77  A    between atoms: _180  and  _181
REMARK   78  A    between atoms: _184  and  _186
REMARK   79  A    between atoms: _186  and  _187
REMARK   80  A    between atoms: _186  and  _189
REMARK   81  A    between atoms: _189  and  _190
REMARK   82  A    between atoms: _190  and  _191
REMARK   83  A    between atoms: _193  and  _195
REMARK   84  A    between atoms: _195  and  _196
REMARK   85  A    between atoms: _195  and  _198
REMARK   86  A    between atoms: _198  and  _199
REMARK   87  A    between atoms: _204  and  _205
REMARK   88  A    between atoms: _207  and  _209
REMARK   89  A    between atoms: _209  and  _210
REMARK   90  A    between atoms: _209  and  _212
REMARK   91  A    between atoms: _212  and  _213
REMARK   92  A    between atoms: _213  and  _214
REMARK   93  A    between atoms: _214  and  _215
REMARK   94  A    between atoms: _215  and  _216
REMARK   95  A    between atoms: _220  and  _222
REMARK   96  A    between atoms: _222  and  _223
REMARK   97  A    between atoms: _222  and  _225
REMARK   98  A    between atoms: _227  and  _229
REMARK   99  A    between atoms: _229  and  _230
REMARK  100  A    between atoms: _229  and  _232
REMARK  101  A    between atoms: _232  and  _233
REMARK  102  A    between atoms: _233  and  _234
REMARK  103  A    between atoms: _237  and  _239
REMARK  104  A    between atoms: _239  and  _240
REMARK  105  A    between atoms: _239  and  _242
REMARK  106  A    between atoms: _242  and  _243
REMARK  107  A    between atoms: _248  and  _250
REMARK  108  A    between atoms: _250  and  _251
REMARK  109  A    between atoms: _254  and  _256
REMARK  110  A    between atoms: _256  and  _257
REMARK  111  A    between atoms: _256  and  _259
REMARK  112  A    between atoms: _259  and  _260
REMARK  113  A    between atoms: _260  and  _261
REMARK  114  A    between atoms: _263  and  _265
REMARK  115  A    between atoms: _265  and  _266
REMARK  116  A    between atoms: _265  and  _268
REMARK  117  A    between atoms: _268  and  _269
REMARK  118  A    between atoms: _279  and  _281
REMARK  119  A    between atoms: _281  and  _282
REMARK  120  A    between atoms: _281  and  _284
REMARK  121  A    between atoms: _284  and  _285
REMARK  122  A    between atoms: _288  and  _290
REMARK  123  A    between atoms: _290  and  _291
REMARK  124  A    between atoms: _290  and  _293
REMARK  125  A    between atoms: _293  and  _294
REMARK  126  A    between atoms: _294  and  _295
REMARK  127  A    between atoms: _300  and  _302
REMARK  128  A    between atoms: _302  and  _303
REMARK  129  A    between atoms: _302  and  _305
REMARK  130  A    between atoms: _305  and  _306
REMARK  131  A    between atoms: _309  and  _311
REMARK  132  A    between atoms: _311  and  _312
REMARK  133  A    between atoms: _311  and  _314
REMARK  134  A    between atoms: _314  and  _315
REMARK  135  A    between atoms: _315  and  _316
REMARK  136  A    between atoms: _321  and  _323
REMARK  137  A    between atoms: _323  and  _324
REMARK  138  A    between atoms: _323  and  _326
REMARK  139  A    between atoms: _326  and  _327
REMARK  140  A    between atoms: _333  and  _335
REMARK  141  A    between atoms: _335  and  _336
REMARK  142  A    between atoms: _335  and  _338
REMARK  143  A    between atoms: _340  and  _342
REMARK  144  A    between atoms: _342  and  _343
REMARK  145  A    between atoms: _342  and  _345
REMARK  146  A    between atoms: _345  and  _346
REMARK  147  A    between atoms: _346  and  _347
REMARK  148  A    between atoms: _349  and  _351
REMARK  149  A    between atoms: _351  and  _352
REMARK  150  A    between atoms: _351  and  _354
REMARK  151  A    between atoms: _354  and  _355
REMARK  152  A    between atoms: _360  and  _362
REMARK  153  A    between atoms: _362  and  _363
REMARK  154  A    between atoms: _365  and  _367
REMARK  155  A    between atoms: _367  and  _368
REMARK  156  A    between atoms: _367  and  _370
REMARK  157  A    between atoms: _373  and  _375
REMARK  158  A    between atoms: _375  and  _376
REMARK  159  A    between atoms: _375  and  _378
REMARK  160  A    between atoms: _378  and  _379
REMARK  161  A    between atoms: _379  and  _380
REMARK  162  A    between atoms: _383  and  _385
REMARK  163  A    between atoms: _385  and  _386
REMARK  164  A    between atoms: _385  and  _388
REMARK  165  A    between atoms: _388  and  _389
REMARK  166  A    between atoms: _392  and  _394
REMARK  167  A    between atoms: _394  and  _395
REMARK  168  A    between atoms: _394  and  _397
REMARK  169  A    between atoms: _397  and  _398
REMARK  170  A    between atoms: _400  and  _402
REMARK  171  A    between atoms: _402  and  _403
REMARK  172  A    between atoms: _402  and  _405
REMARK  173  A    between atoms: _405  and  _406
REMARK  174  A    between atoms: _416  and  _418
REMARK  175  A    between atoms: _418  and  _419
REMARK  176  A    between atoms: _418  and  _421
REMARK  177  A    between atoms: _421  and  _422
REMARK  178  A    between atoms: _424  and  _426
REMARK  179  A    between atoms: _426  and  _427
REMARK  180  A    between atoms: _426  and  _429
REMARK  181  A    between atoms: _429  and  _430
REMARK  182  A    between atoms: _430  and  _431
REMARK  183  A    between atoms: _434  and  _436
REMARK  184  A    between atoms: _436  and  _437
REMARK  185  A    between atoms: _436  and  _439
REMARK  186  A    between atoms: _439  and  _440
REMARK  187  A    between atoms: _440  and  _441
REMARK  188  A    between atoms: _441  and  _442
REMARK                            x       y       z     vdW  Elec       q    Type
REMARK                         _______ _______ _______ _____ _____    ______ ____
ROOT
ATOM      1  NE  ARG A   1      -2.867 -24.624 -22.793  0.00  0.00    -0.265 N 
ATOM      2  HE  ARG A   1      -2.377 -24.737 -21.883  0.00  0.00    +0.259 HD
ATOM      3  CZ  ARG A   1      -4.142 -24.995 -22.863  0.00  0.00    +0.342 C 
ATOM      4  NH2 ARG A   1      -4.760 -25.477 -21.784  0.00  0.00    -0.292 N 
ATOM      5 HH21 ARG A   1      -4.245 -25.564 -20.885  0.00  0.00    +0.255 HD
ATOM      6 HH22 ARG A   1      -5.757 -25.766 -21.842  0.00  0.00    +0.255 HD
ATOM      7  NH1 ARG A   1      -4.803 -24.882 -24.009  0.00  0.00    -0.292 N 
ATOM      8 HH11 ARG A   1      -5.800 -25.172 -24.065  0.00  0.00    +0.255 HD
ATOM      9 HH12 ARG A   1      -4.324 -24.504 -24.851  0.00  0.00    +0.255 HD
ENDROOT
BRANCH   1  10
ATOM     10  CD  ARG A   1      -2.109 -24.067 -23.913  0.00  0.00    +0.174 C 
BRANCH  10  11
ATOM     11  CG  ARG A   1      -0.910 -24.910 -24.311  0.00  0.00    +0.045 C 
BRANCH  11  12
ATOM     12  CB  ARG A   1      -0.227 -24.313 -25.553  0.00  0.00    +0.029 C 
BRANCH  12  13
ATOM     13  CA  ARG A   1       1.158 -24.887 -25.869  0.00  0.00    +0.133 C 
BRANCH  13  14
ATOM     14  N   ARG A   1       1.674 -24.339 -27.115  0.00  0.00    -0.239 NA
ATOM     15  H   ARG A   1       1.044 -24.286 -27.941  0.00  0.00    +0.142 HD
ENDBRANCH  13  14
BRANCH  13  16
ATOM     16  C   ARG A   1       1.114 -26.406 -25.998  0.00  0.00    +0.224 C 
ATOM     17  O   ARG A   1       0.611 -26.939 -26.989  0.00  0.00    -0.287 OA
ENDBRANCH  13  16
ENDBRANCH  12  13
ENDBRANCH  11  12
ENDBRANCH  10  11
ENDBRANCH   1  10
TORSDOF 6
REMARK  Name = ../refined-set-2016/3t08/3t08_pocket.pdb
REMARK  188 active torsions:
REMARK  status: ('A' for Active; 'I' for Inactive)
REMARK    1  A    between atoms: _1  and  _3
REMARK    2  A    between atoms: _3  and  _4
REMARK    3  A    between atoms: _3  and  _6
REMARK    4  A    between atoms: _6  and  _7
REMARK    5  A    between atoms: _12  and  _13
REMARK    6  A    between atoms: _15  and  _17
REMARK    7  A    between atoms: _17  and  _18
REMARK    8  A    between atoms: _17  and  _20
REMARK    9  A    between atoms: _20  and  _21
REMARK   10  A    between atoms: _26  and  _28
REMARK   11  A    between atoms: _28  and  _29
REMARK   12  A    between atoms: _28  and  _31
REMARK   13  A    between atoms: _34  and  _36
REMARK   14  A    between atoms: _36  and  _37
REMARK   15  A    between atoms: _36  and  _39
REMARK   16  A    between atoms: _39  and  _40
REMARK   17  A    between atoms: _43  and  _45
REMARK   18  A    between atoms: _45  and  _46
REMARK   19  A    between atoms: _45  and  _48
REMARK   20  A    between atoms: _48  and  _49
REMARK   21  A    between atoms: _49  and  _50
REMARK   22  A    between atoms: _55  and  _57
REMARK   23  A    between atoms: _57  and  _58
REMARK   24  A    between atoms: _57  and  _60
REMARK   25  A    between atoms: _60  and  _61
REMARK   26  A    between atoms: _64  and  _66
REMARK   27  A    between atoms: _66  and  _67
REMARK   28  A    between atoms: _66  and  _69
REMARK   29  A    between atoms: _69  and  _70
REMARK   30  A    between atoms: _70  and  _71
REMARK   31  A    between atoms: _73  and  _75
REMARK   32  A    between atoms: _75  and  _76
REMARK   33  A    between atoms: _75  and  _78
REMARK   34  A    between atoms: _78  and  _79
REMARK   35  A    between atoms: _84  and  _86
REMARK   36  A    between atoms: _86  and  _87
REMARK   37  A    between atoms: _86  and  _89
REMARK   38  A    between atoms: _89  and  _90
REMARK   39  A    between atoms: _95  and  _97
REMARK   40  A    between atoms: _97  and  _98
REMARK   41  A    between atoms: _97  and  _100
REMARK   42  A    between atoms: _100  and  _101
REMARK   43  A    between atoms: _101  and  _102
REMARK   44  A    between atoms: _102  and  _103
REMARK   45  A    between atoms: _112  and  _114
REMARK   46  A    between atoms: _114  and  _115
REMARK   47  A    between atoms: _114  and  _117
REMARK   48  A    between atoms: _117  and  _118
REMARK   49  A    between atoms: _123  and  _125
REMARK   50  A    between atoms: _125  and  _126
REMARK   51  A    between atoms: _125  and  _128
REMARK   52  A    between atoms: _128  and  _129
REMARK   53  A    between atoms: _129  and  _130
REMARK   54  A    between atoms: _133  and  _135
REMARK   55  A    between atoms: _135  and  _136
REMARK   56  A    between atoms: _135  and  _138
REMARK   57  A    between atoms: _138  and  _139
REMARK   58  A    between atoms: _140  and  MG_451
REMARK   59  A    between atoms: _144  and  _146
REMARK   60  A    between atoms: _146  and  _147
REMARK   61  A    between atoms: _146  and  _149
REMARK   62  A    between atoms: _149  and  _150
REMARK   63  A    between atoms: _150  and  _151
REMARK   64  A    between atoms: _153  and  _155
REMARK   65  A    between atoms: _155  and  _156
REMARK   66  A    between atoms: _155  and  _158
REMARK   67  A    between atoms: _158  and  _159
REMARK   68  A    between atoms: _164  and  _166
REMARK   69  A    between atoms: _166  and  _167
REMARK   70  A    between atoms: _166  and  _169
REMARK   71  A    between atoms: _169  and  _170
REMARK   72  A    between atoms: _170  and  _171
REMARK   73  A    between atoms: _174  and  _176
REMARK   74  A    between atoms: _176  and  _177
REMARK   75  A    between atoms: _176  and  _179
REMARK   76  A    between atoms: _179  and  _180
REMARK   77  A    between atoms: _180  and  _181
REMARK   78  A    between atoms: _184  and  _186
REMARK   79  A    between atoms: _186  and  _187
REMARK   80  A    between atoms: _186  and  _189
REMARK   81  A    between atoms: _189  and  _190
REMARK   82  A    between atoms: _190  and  _191
REMARK   83  A    between atoms: _193  and  _195
REMARK   84  A    between atoms: _195  and  _196
REMARK   85  A    between atoms: _195  and  _198
REMARK   86  A    between atoms: _198  and  _199
REMARK   87  A    between atoms: _204  and  _205
REMARK   88  A    between atoms: _207  and  _209
REMARK   89  A    between atoms: _209  and  _210
REMARK   90  A    between atoms: _209  and  _212
REMARK   91  A    between atoms: _212  and  _213
REMARK   92  A    between atoms: _213  and  _214
REMARK   93  A    between atoms: _214  and  _215
REMARK   94  A    between atoms: _215  and  _216
REMARK   95  A    between atoms: _220  and  _222
REMARK   96  A    between atoms: _222  and  _223
REMARK   97  A    between atoms: _222  and  _225
REMARK   98  A    between atoms: _227  and  _229
REMARK   99  A    between atoms: _229  and  _230
REMARK  100  A    between atoms: _229  and  _232
REMARK  101  A    between atoms: _232  and  _233
REMARK  102  A    between atoms: _233  and  _234
REMARK  103  A    between atoms: _237  and  _239
REMARK  104  A    between atoms: _239  and  _240
REMARK  105  A    between atoms: _239  and  _242
REMARK  106  A    between atoms: _242  and  _243
REMARK  107  A    between atoms: _248  and  _250
REMARK  108  A    between atoms: _250  and  _251
REMARK  109  A    between atoms: _254  and  _256
REMARK  110  A    between atoms: _256  and  _257
REMARK  111  A    between atoms: _256  and  _259
REMARK  112  A    between atoms: _259  and  _260
REMARK  113  A    between atoms: _260  and  _261
REMARK  114  A    between atoms: _263  and  _265
REMARK  115  A    between atoms: _265  and  _266
REMARK  116  A    between atoms: _265  and  _268
REMARK  117  A    between atoms: _268  and  _269
REMARK  118  A    between atoms: _279  and  _281
REMARK  119  A    between atoms: _281  and  _282
REMARK  120  A    between atoms: _281  and  _284
REMARK  121  A    between atoms: _284  and  _285
REMARK  122  A    between atoms: _288  and  _290
REMARK  123  A    between atoms: _290  and  _291
REMARK  124  A    between atoms: _290  and  _293
REMARK  125  A    between atoms: _293  and  _294
REMARK  126  A    between atoms: _294  and  _295
REMARK  127  A    between atoms: _300  and  _302
REMARK  128  A    between atoms: _302  and  _303
REMARK  129  A    between atoms: _302  and  _305
REMARK  130  A    between atoms: _305  and  _306
REMARK  131  A    between atoms: _309  and  _311
REMARK  132  A    between atoms: _311  and  _312
REMARK  133  A    between atoms: _311  and  _314
REMARK  134  A    between atoms: _314  and  _315
REMARK  135  A    between atoms: _315  and  _316
REMARK  136  A    between atoms: _321  and  _323
REMARK  137  A    between atoms: _323  and  _324
REMARK  138  A    between atoms: _323  and  _326
REMARK  139  A    between atoms: _326  and  _327
REMARK  140  A    between atoms: _333  and  _335
REMARK  141  A    between atoms: _335  and  _336
REMARK  142  A    between atoms: _335  and  _338
REMARK  143  A    between atoms: _340  and  _342
REMARK  144  A    between atoms: _342  and  _343
REMARK  145  A    between atoms: _342  and  _345
REMARK  146  A    between atoms: _345  and  _346
REMARK  147  A    between atoms: _346  and  _347
REMARK  148  A    between atoms: _349  and  _351
REMARK  149  A    between atoms: _351  and  _352
REMARK  150  A    between atoms: _351  and  _354
REMARK  151  A    between atoms: _354  and  _355
REMARK  152  A    between atoms: _360  and  _362
REMARK  153  A    between atoms: _362  and  _363
REMARK  154  A    between atoms: _365  and  _367
REMARK  155  A    between atoms: _367  and  _368
REMARK  156  A    between atoms: _367  and  _370
REMARK  157  A    between atoms: _373  and  _375
REMARK  158  A    between atoms: _375  and  _376
REMARK  159  A    between atoms: _375  and  _378
REMARK  160  A    between atoms: _378  and  _379
REMARK  161  A    between atoms: _379  and  _380
REMARK  162  A    between atoms: _383  and  _385
REMARK  163  A    between atoms: _385  and  _386
REMARK  164  A    between atoms: _385  and  _388
REMARK  165  A    between atoms: _388  and  _389
REMARK  166  A    between atoms: _392  and  _394
REMARK  167  A    between atoms: _394  and  _395
REMARK  168  A    between atoms: _394  and  _397
REMARK  169  A    between atoms: _397  and  _398
REMARK  170  A    between atoms: _400  and  _402
REMARK  171  A    between atoms: _402  and  _403
REMARK  172  A    between atoms: _402  and  _405
REMARK  173  A    between atoms: _405  and  _406
REMARK  174  A    between atoms: _416  and  _418
REMARK  175  A    between atoms: _418  and  _419
REMARK  176  A    between atoms: _418  and  _421
REMARK  177  A    between atoms: _421  and  _422
REMARK  178  A    between atoms: _424  and  _426
REMARK  179  A    between atoms: _426  and  _427
REMARK  180  A    between atoms: _426  and  _429
REMARK  181  A    between atoms: _429  and  _430
REMARK  182  A    between atoms: _430  and  _431
REMARK  183  A    between atoms: _434  and  _436
REMARK  184  A    between atoms: _436  and  _437
REMARK  185  A    between atoms: _436  and  _439
REMARK  186  A    between atoms: _439  and  _440
REMARK  187  A    between atoms: _440  and  _441
REMARK  188  A    between atoms: _441  and  _442
REMARK                            x       y       z     vdW  Elec       q    Type
REMARK                         _______ _______ _______ _____ _____    ______ ____
ROOT
ATOM      1  CB  HIS A   1      -4.112 -30.810 -22.270  0.00  0.00    +0.072 C 
ENDROOT
BRANCH   1   2
ATOM      2  CG  HIS A   1      -4.958 -29.968 -23.174  0.00  0.00    +0.082 A 
ATOM      3  ND1 HIS A   1      -4.909 -28.590 -23.174  0.00  0.00    -0.227 NA
ATOM      4  CE1 HIS A   1      -5.758 -28.121 -24.071  0.00  0.00    +0.199 A 
ATOM      5  NE2 HIS A   1      -6.373 -29.144 -24.637  0.00  0.00    -0.221 NA
ATOM      6  CD2 HIS A   1      -5.898 -30.311 -24.088  0.00  0.00    +0.115 A 
ENDBRANCH   1   2
BRANCH   1   7
ATOM      7  CA  HIS A   1      -2.643 -30.915 -22.700  0.00  0.00    +0.139 C 
BRANCH   7   8
ATOM      8  N   HIS A   1      -2.535 -31.493 -24.051  0.00  0.00    -0.239 NA
ATOM      9  H   HIS A   1      -2.723 -32.511 -24.150  0.00  0.00    +0.142 HD
ENDBRANCH   7   8
BRANCH   7  10
ATOM     10  C   HIS A   1      -1.899 -31.831 -21.716  0.00  0.00    +0.224 C 
ATOM     11  O   HIS A   1      -2.497 -32.400 -20.796  0.00  0.00    -0.287 OA
ENDBRANCH   7  10
ENDBRANCH   1   7
TORSDOF 4
REMARK  Name = ../refined-set-2016/3t08/3t08_pocket.pdb
REMARK  188 active torsions:
REMARK  status: ('A' for Active; 'I' for Inactive)
REMARK    1  A    between atoms: _1  and  _3
REMARK    2  A    between atoms: _3  and  _4
REMARK    3  A    between atoms: _3  and  _6
REMARK    4  A    between atoms: _6  and  _7
REMARK    5  A    between atoms: _12  and  _13
REMARK    6  A    between atoms: _15  and  _17
REMARK    7  A    between atoms: _17  and  _18
REMARK    8  A    between atoms: _17  and  _20
REMARK    9  A    between atoms: _20  and  _21
REMARK   10  A    between atoms: _26  and  _28
REMARK   11  A    between atoms: _28  and  _29
REMARK   12  A    between atoms: _28  and  _31
REMARK   13  A    between atoms: _34  and  _36
REMARK   14  A    between atoms: _36  and  _37
REMARK   15  A    between atoms: _36  and  _39
REMARK   16  A    between atoms: _39  and  _40
REMARK   17  A    between atoms: _43  and  _45
REMARK   18  A    between atoms: _45  and  _46
REMARK   19  A    between atoms: _45  and  _48
REMARK   20  A    between atoms: _48  and  _49
REMARK   21  A    between atoms: _49  and  _50
REMARK   22  A    between atoms: _55  and  _57
REMARK   23  A    between atoms: _57  and  _58
REMARK   24  A    between atoms: _57  and  _60
REMARK   25  A    between atoms: _60  and  _61
REMARK   26  A    between atoms: _64  and  _66
REMARK   27  A    between atoms: _66  and  _67
REMARK   28  A    between atoms: _66  and  _69
REMARK   29  A    between atoms: _69  and  _70
REMARK   30  A    between atoms: _70  and  _71
REMARK   31  A    between atoms: _73  and  _75
REMARK   32  A    between atoms: _75  and  _76
REMARK   33  A    between atoms: _75  and  _78
REMARK   34  A    between atoms: _78  and  _79
REMARK   35  A    between atoms: _84  and  _86
REMARK   36  A    between atoms: _86  and  _87
REMARK   37  A    between atoms: _86  and  _89
REMARK   38  A    between atoms: _89  and  _90
REMARK   39  A    between atoms: _95  and  _97
REMARK   40  A    between atoms: _97  and  _98
REMARK   41  A    between atoms: _97  and  _100
REMARK   42  A    between atoms: _100  and  _101
REMARK   43  A    between atoms: _101  and  _102
REMARK   44  A    between atoms: _102  and  _103
REMARK   45  A    between atoms: _112  and  _114
REMARK   46  A    between atoms: _114  and  _115
REMARK   47  A    between atoms: _114  and  _117
REMARK   48  A    between atoms: _117  and  _118
REMARK   49  A    between atoms: _123  and  _125
REMARK   50  A    between atoms: _125  and  _126
REMARK   51  A    between atoms: _125  and  _128
REMARK   52  A    between atoms: _128  and  _129
REMARK   53  A    between atoms: _129  and  _130
REMARK   54  A    between atoms: _133  and  _135
REMARK   55  A    between atoms: _135  and  _136
REMARK   56  A    between atoms: _135  and  _138
REMARK   57  A    between atoms: _138  and  _139
REMARK   58  A    between atoms: _140  and  MG_451
REMARK   59  A    between atoms: _144  and  _146
REMARK   60  A    between atoms: _146  and  _147
REMARK   61  A    between atoms: _146  and  _149
REMARK   62  A    between atoms: _149  and  _150
REMARK   63  A    between atoms: _150  and  _151
REMARK   64  A    between atoms: _153  and  _155
REMARK   65  A    between atoms: _155  and  _156
REMARK   66  A    between atoms: _155  and  _158
REMARK   67  A    between atoms: _158  and  _159
REMARK   68  A    between atoms: _164  and  _166
REMARK   69  A    between atoms: _166  and  _167
REMARK   70  A    between atoms: _166  and  _169
REMARK   71  A    between atoms: _169  and  _170
REMARK   72  A    between atoms: _170  and  _171
REMARK   73  A    between atoms: _174  and  _176
REMARK   74  A    between atoms: _176  and  _177
REMARK   75  A    between atoms: _176  and  _179
REMARK   76  A    between atoms: _179  and  _180
REMARK   77  A    between atoms: _180  and  _181
REMARK   78  A    between atoms: _184  and  _186
REMARK   79  A    between atoms: _186  and  _187
REMARK   80  A    between atoms: _186  and  _189
REMARK   81  A    between atoms: _189  and  _190
REMARK   82  A    between atoms: _190  and  _191
REMARK   83  A    between atoms: _193  and  _195
REMARK   84  A    between atoms: _195  and  _196
REMARK   85  A    between atoms: _195  and  _198
REMARK   86  A    between atoms: _198  and  _199
REMARK   87  A    between atoms: _204  and  _205
REMARK   88  A    between atoms: _207  and  _209
REMARK   89  A    between atoms: _209  and  _210
REMARK   90  A    between atoms: _209  and  _212
REMARK   91  A    between atoms: _212  and  _213
REMARK   92  A    between atoms: _213  and  _214
REMARK   93  A    between atoms: _214  and  _215
REMARK   94  A    between atoms: _215  and  _216
REMARK   95  A    between atoms: _220  and  _222
REMARK   96  A    between atoms: _222  and  _223
REMARK   97  A    between atoms: _222  and  _225
REMARK   98  A    between atoms: _227  and  _229
REMARK   99  A    between atoms: _229  and  _230
REMARK  100  A    between atoms: _229  and  _232
REMARK  101  A    between atoms: _232  and  _233
REMARK  102  A    between atoms: _233  and  _234
REMARK  103  A    between atoms: _237  and  _239
REMARK  104  A    between atoms: _239  and  _240
REMARK  105  A    between atoms: _239  and  _242
REMARK  106  A    between atoms: _242  and  _243
REMARK  107  A    between atoms: _248  and  _250
REMARK  108  A    between atoms: _250  and  _251
REMARK  109  A    between atoms: _254  and  _256
REMARK  110  A    between atoms: _256  and  _257
REMARK  111  A    between atoms: _256  and  _259
REMARK  112  A    between atoms: _259  and  _260
REMARK  113  A    between atoms: _260  and  _261
REMARK  114  A    between atoms: _263  and  _265
REMARK  115  A    between atoms: _265  and  _266
REMARK  116  A    between atoms: _265  and  _268
REMARK  117  A    between atoms: _268  and  _269
REMARK  118  A    between atoms: _279  and  _281
REMARK  119  A    between atoms: _281  and  _282
REMARK  120  A    between atoms: _281  and  _284
REMARK  121  A    between atoms: _284  and  _285
REMARK  122  A    between atoms: _288  and  _290
REMARK  123  A    between atoms: _290  and  _291
REMARK  124  A    between atoms: _290  and  _293
REMARK  125  A    between atoms: _293  and  _294
REMARK  126  A    between atoms: _294  and  _295
REMARK  127  A    between atoms: _300  and  _302
REMARK  128  A    between atoms: _302  and  _303
REMARK  129  A    between atoms: _302  and  _305
REMARK  130  A    between atoms: _305  and  _306
REMARK  131  A    between atoms: _309  and  _311
REMARK  132  A    between atoms: _311  and  _312
REMARK  133  A    between atoms: _311  and  _314
REMARK  134  A    between atoms: _314  and  _315
REMARK  135  A    between atoms: _315  and  _316
REMARK  136  A    between atoms: _321  and  _323
REMARK  137  A    between atoms: _323  and  _324
REMARK  138  A    between atoms: _323  and  _326
REMARK  139  A    between atoms: _326  and  _327
REMARK  140  A    between atoms: _333  and  _335
REMARK  141  A    between atoms: _335  and  _336
REMARK  142  A    between atoms: _335  and  _338
REMARK  143  A    between atoms: _340  and  _342
REMARK  144  A    between atoms: _342  and  _343
REMARK  145  A    between atoms: _342  and  _345
REMARK  146  A    between atoms: _345  and  _346
REMARK  147  A    between atoms: _346  and  _347
REMARK  148  A    between atoms: _349  and  _351
REMARK  149  A    between atoms: _351  and  _352
REMARK  150  A    between atoms: _351  and  _354
REMARK  151  A    between atoms: _354  and  _355
REMARK  152  A    between atoms: _360  and  _362
REMARK  153  A    between atoms: _362  and  _363
REMARK  154  A    between atoms: _365  and  _367
REMARK  155  A    between atoms: _367  and  _368
REMARK  156  A    between atoms: _367  and  _370
REMARK  157  A    between atoms: _373  and  _375
REMARK  158  A    between atoms: _375  and  _376
REMARK  159  A    between atoms: _375  and  _378
REMARK  160  A    between atoms: _378  and  _379
REMARK  161  A    between atoms: _379  and  _380
REMARK  162  A    between atoms: _383  and  _385
REMARK  163  A    between atoms: _385  and  _386
REMARK  164  A    between atoms: _385  and  _388
REMARK  165  A    between atoms: _388  and  _389
REMARK  166  A    between atoms: _392  and  _394
REMARK  167  A    between atoms: _394  and  _395
REMARK  168  A    between atoms: _394  and  _397
REMARK  169  A    between atoms: _397  and  _398
REMARK  170  A    between atoms: _400  and  _402
REMARK  171  A    between atoms: _402  and  _403
REMARK  172  A    between atoms: _402  and  _405
REMARK  173  A    between atoms: _405  and  _406
REMARK  174  A    between atoms: _416  and  _418
REMARK  175  A    between atoms: _418  and  _419
REMARK  176  A    between atoms: _418  and  _421
REMARK  177  A    between atoms: _421  and  _422
REMARK  178  A    between atoms: _424  and  _426
REMARK  179  A    between atoms: _426  and  _427
REMARK  180  A    between atoms: _426  and  _429
REMARK  181  A    between atoms: _429  and  _430
REMARK  182  A    between atoms: _430  and  _431
REMARK  183  A    between atoms: _434  and  _436
REMARK  184  A    between atoms: _436  and  _437
REMARK  185  A    between atoms: _436  and  _439
REMARK  186  A    between atoms: _439  and  _440
REMARK  187  A    between atoms: _440  and  _441
REMARK  188  A    between atoms: _441  and  _442
REMARK                            x       y       z     vdW  Elec       q    Type
REMARK                         _______ _______ _______ _____ _____    ______ ____
ROOT
ATOM      1  CA  GLU A   1      -7.950 -32.955 -17.449  0.00  0.00    +0.134 C 
ENDROOT
BRANCH   1   2
ATOM      2  N   GLU A   1      -6.689 -33.454 -16.918  0.00  0.00    -0.239 NA
ATOM      3  H   GLU A   1      -6.558 -34.481 -16.818  0.00  0.00    +0.142 HD
ENDBRANCH   1   2
BRANCH   1   4
ATOM      4  C   GLU A   1      -9.113 -33.819 -16.962  0.00  0.00    +0.224 C 
ATOM      5  O   GLU A   1      -9.111 -35.037 -17.154  0.00  0.00    -0.287 OA
ENDBRANCH   1   4
BRANCH   1   6
ATOM      6  CB  GLU A   1      -7.945 -32.860 -18.990  0.00  0.00    +0.037 C 
BRANCH   6   7
ATOM      7  CG  GLU A   1      -9.339 -32.536 -19.523  0.00  0.00    +0.116 C 
BRANCH   7   8
ATOM      8  CD  GLU A   1      -9.387 -31.846 -20.889  0.00  0.00    +0.365 C 
ATOM      9  OE2 GLU A   1     -10.514 -31.601 -21.330  0.00  0.00    -0.246 OA
ATOM     10  OE1 GLU A   1      -8.348 -31.554 -21.519  0.00  0.00    -0.246 OA
ENDBRANCH   7   8
ENDBRANCH   6   7
ENDBRANCH   1   6
TORSDOF 5
REMARK  Name = ../refined-set-2016/3t08/3t08_pocket.pdb
REMARK  188 active torsions:
REMARK  status: ('A' for Active; 'I' for Inactive)
REMARK    1  A    between atoms: _1  and  _3
REMARK    2  A    between atoms: _3  and  _4
REMARK    3  A    between atoms: _3  and  _6
REMARK    4  A    between atoms: _6  and  _7
REMARK    5  A    between atoms: _12  and  _13
REMARK    6  A    between atoms: _15  and  _17
REMARK    7  A    between atoms: _17  and  _18
REMARK    8  A    between atoms: _17  and  _20
REMARK    9  A    between atoms: _20  and  _21
REMARK   10  A    between atoms: _26  and  _28
REMARK   11  A    between atoms: _28  and  _29
REMARK   12  A    between atoms: _28  and  _31
REMARK   13  A    between atoms: _34  and  _36
REMARK   14  A    between atoms: _36  and  _37
REMARK   15  A    between atoms: _36  and  _39
REMARK   16  A    between atoms: _39  and  _40
REMARK   17  A    between atoms: _43  and  _45
REMARK   18  A    between atoms: _45  and  _46
REMARK   19  A    between atoms: _45  and  _48
REMARK   20  A    between atoms: _48  and  _49
REMARK   21  A    between atoms: _49  and  _50
REMARK   22  A    between atoms: _55  and  _57
REMARK   23  A    between atoms: _57  and  _58
REMARK   24  A    between atoms: _57  and  _60
REMARK   25  A    between atoms: _60  and  _61
REMARK   26  A    between atoms: _64  and  _66
REMARK   27  A    between atoms: _66  and  _67
REMARK   28  A    between atoms: _66  and  _69
REMARK   29  A    between atoms: _69  and  _70
REMARK   30  A    between atoms: _70  and  _71
REMARK   31  A    between atoms: _73  and  _75
REMARK   32  A    between atoms: _75  and  _76
REMARK   33  A    between atoms: _75  and  _78
REMARK   34  A    between atoms: _78  and  _79
REMARK   35  A    between atoms: _84  and  _86
REMARK   36  A    between atoms: _86  and  _87
REMARK   37  A    between atoms: _86  and  _89
REMARK   38  A    between atoms: _89  and  _90
REMARK   39  A    between atoms: _95  and  _97
REMARK   40  A    between atoms: _97  and  _98
REMARK   41  A    between atoms: _97  and  _100
REMARK   42  A    between atoms: _100  and  _101
REMARK   43  A    between atoms: _101  and  _102
REMARK   44  A    between atoms: _102  and  _103
REMARK   45  A    between atoms: _112  and  _114
REMARK   46  A    between atoms: _114  and  _115
REMARK   47  A    between atoms: _114  and  _117
REMARK   48  A    between atoms: _117  and  _118
REMARK   49  A    between atoms: _123  and  _125
REMARK   50  A    between atoms: _125  and  _126
REMARK   51  A    between atoms: _125  and  _128
REMARK   52  A    between atoms: _128  and  _129
REMARK   53  A    between atoms: _129  and  _130
REMARK   54  A    between atoms: _133  and  _135
REMARK   55  A    between atoms: _135  and  _136
REMARK   56  A    between atoms: _135  and  _138
REMARK   57  A    between atoms: _138  and  _139
REMARK   58  A    between atoms: _140  and  MG_451
REMARK   59  A    between atoms: _144  and  _146
REMARK   60  A    between atoms: _146  and  _147
REMARK   61  A    between atoms: _146  and  _149
REMARK   62  A    between atoms: _149  and  _150
REMARK   63  A    between atoms: _150  and  _151
REMARK   64  A    between atoms: _153  and  _155
REMARK   65  A    between atoms: _155  and  _156
REMARK   66  A    between atoms: _155  and  _158
REMARK   67  A    between atoms: _158  and  _159
REMARK   68  A    between atoms: _164  and  _166
REMARK   69  A    between atoms: _166  and  _167
REMARK   70  A    between atoms: _166  and  _169
REMARK   71  A    between atoms: _169  and  _170
REMARK   72  A    between atoms: _170  and  _171
REMARK   73  A    between atoms: _174  and  _176
REMARK   74  A    between atoms: _176  and  _177
REMARK   75  A    between atoms: _176  and  _179
REMARK   76  A    between atoms: _179  and  _180
REMARK   77  A    between atoms: _180  and  _181
REMARK   78  A    between atoms: _184  and  _186
REMARK   79  A    between atoms: _186  and  _187
REMARK   80  A    between atoms: _186  and  _189
REMARK   81  A    between atoms: _189  and  _190
REMARK   82  A    between atoms: _190  and  _191
REMARK   83  A    between atoms: _193  and  _195
REMARK   84  A    between atoms: _195  and  _196
REMARK   85  A    between atoms: _195  and  _198
REMARK   86  A    between atoms: _198  and  _199
REMARK   87  A    between atoms: _204  and  _205
REMARK   88  A    between atoms: _207  and  _209
REMARK   89  A    between atoms: _209  and  _210
REMARK   90  A    between atoms: _209  and  _212
REMARK   91  A    between atoms: _212  and  _213
REMARK   92  A    between atoms: _213  and  _214
REMARK   93  A    between atoms: _214  and  _215
REMARK   94  A    between atoms: _215  and  _216
REMARK   95  A    between atoms: _220  and  _222
REMARK   96  A    between atoms: _222  and  _223
REMARK   97  A    between atoms: _222  and  _225
REMARK   98  A    between atoms: _227  and  _229
REMARK   99  A    between atoms: _229  and  _230
REMARK  100  A    between atoms: _229  and  _232
REMARK  101  A    between atoms: _232  and  _233
REMARK  102  A    between atoms: _233  and  _234
REMARK  103  A    between atoms: _237  and  _239
REMARK  104  A    between atoms: _239  and  _240
REMARK  105  A    between atoms: _239  and  _242
REMARK  106  A    between atoms: _242  and  _243
REMARK  107  A    between atoms: _248  and  _250
REMARK  108  A    between atoms: _250  and  _251
REMARK  109  A    between atoms: _254  and  _256
REMARK  110  A    between atoms: _256  and  _257
REMARK  111  A    between atoms: _256  and  _259
REMARK  112  A    between atoms: _259  and  _260
REMARK  113  A    between atoms: _260  and  _261
REMARK  114  A    between atoms: _263  and  _265
REMARK  115  A    between atoms: _265  and  _266
REMARK  116  A    between atoms: _265  and  _268
REMARK  117  A    between atoms: _268  and  _269
REMARK  118  A    between atoms: _279  and  _281
REMARK  119  A    between atoms: _281  and  _282
REMARK  120  A    between atoms: _281  and  _284
REMARK  121  A    between atoms: _284  and  _285
REMARK  122  A    between atoms: _288  and  _290
REMARK  123  A    between atoms: _290  and  _291
REMARK  124  A    between atoms: _290  and  _293
REMARK  125  A    between atoms: _293  and  _294
REMARK  126  A    between atoms: _294  and  _295
REMARK  127  A    between atoms: _300  and  _302
REMARK  128  A    between atoms: _302  and  _303
REMARK  129  A    between atoms: _302  and  _305
REMARK  130  A    between atoms: _305  and  _306
REMARK  131  A    between atoms: _309  and  _311
REMARK  132  A    between atoms: _311  and  _312
REMARK  133  A    between atoms: _311  and  _314
REMARK  134  A    between atoms: _314  and  _315
REMARK  135  A    between atoms: _315  and  _316
REMARK  136  A    between atoms: _321  and  _323
REMARK  137  A    between atoms: _323  and  _324
REMARK  138  A    between atoms: _323  and  _326
REMARK  139  A    between atoms: _326  and  _327
REMARK  140  A    between atoms: _333  and  _335
REMARK  141  A    between atoms: _335  and  _336
REMARK  142  A    between atoms: _335  and  _338
REMARK  143  A    between atoms: _340  and  _342
REMARK  144  A    between atoms: _342  and  _343
REMARK  145  A    between atoms: _342  and  _345
REMARK  146  A    between atoms: _345  and  _346
REMARK  147  A    between atoms: _346  and  _347
REMARK  148  A    between atoms: _349  and  _351
REMARK  149  A    between atoms: _351  and  _352
REMARK  150  A    between atoms: _351  and  _354
REMARK  151  A    between atoms: _354  and  _355
REMARK  152  A    between atoms: _360  and  _362
REMARK  153  A    between atoms: _362  and  _363
REMARK  154  A    between atoms: _365  and  _367
REMARK  155  A    between atoms: _367  and  _368
REMARK  156  A    between atoms: _367  and  _370
REMARK  157  A    between atoms: _373  and  _375
REMARK  158  A    between atoms: _375  and  _376
REMARK  159  A    between atoms: _375  and  _378
REMARK  160  A    between atoms: _378  and  _379
REMARK  161  A    between atoms: _379  and  _380
REMARK  162  A    between atoms: _383  and  _385
REMARK  163  A    between atoms: _385  and  _386
REMARK  164  A    between atoms: _385  and  _388
REMARK  165  A    between atoms: _388  and  _389
REMARK  166  A    between atoms: _392  and  _394
REMARK  167  A    between atoms: _394  and  _395
REMARK  168  A    between atoms: _394  and  _397
REMARK  169  A    between atoms: _397  and  _398
REMARK  170  A    between atoms: _400  and  _402
REMARK  171  A    between atoms: _402  and  _403
REMARK  172  A    between atoms: _402  and  _405
REMARK  173  A    between atoms: _405  and  _406
REMARK  174  A    between atoms: _416  and  _418
REMARK  175  A    between atoms: _418  and  _419
REMARK  176  A    between atoms: _418  and  _421
REMARK  177  A    between atoms: _421  and  _422
REMARK  178  A    between atoms: _424  and  _426
REMARK  179  A    between atoms: _426  and  _427
REMARK  180  A    between atoms: _426  and  _429
REMARK  181  A    between atoms: _429  and  _430
REMARK  182  A    between atoms: _430  and  _431
REMARK  183  A    between atoms: _434  and  _436
REMARK  184  A    between atoms: _436  and  _437
REMARK  185  A    between atoms: _436  and  _439
REMARK  186  A    between atoms: _439  and  _440
REMARK  187  A    between atoms: _440  and  _441
REMARK  188  A    between atoms: _441  and  _442
REMARK                            x       y       z     vdW  Elec       q    Type
REMARK                         _______ _______ _______ _____ _____    ______ ____
ROOT
ATOM      1  C   UNL     1     -13.950 -30.993 -20.510  0.00  0.00    +0.000 A 
ATOM      2  C   UNL     1     -15.037 -30.256 -20.177  0.00  0.00    +0.000 A 
ATOM      3  N   UNL     1     -15.204 -29.316 -21.163  0.00  0.00    +0.000 NA
ATOM      4  C   UNL     1     -14.258 -29.473 -22.072  0.00  0.00    +0.000 A 
ATOM      5  N   UNL     1     -13.479 -30.474 -21.700  0.00  0.00    +0.000 N 
ENDROOT
BRANCH   5   6
ATOM      6 MG   UNL     1     -11.811 -30.963 -22.799  0.00  0.00    +0.000 Mg
ATOM      7  O   UNL     1     -11.995 -32.974 -23.131  0.00  0.00    +0.000 OA
ENDBRANCH   5   6
BRANCH   1   8
ATOM      8  C   UNL     1     -13.292 -32.146 -19.822  0.00  0.00    +0.000 C 
BRANCH   8   9
ATOM      9  CA  UNL     1     -13.599 -32.243 -18.324  0.00  0.00    +0.000 C 
BRANCH   9  10
ATOM     10  N   UNL     1     -12.535 -32.989 -17.661  0.00  0.00    +0.000 NA
ATOM     11  H   UNL     1     -11.724 -33.308 -18.228  0.00  0.00    +0.000 HD
ENDBRANCH   9  10
BRANCH   9  12
ATOM     12  C   UNL     1     -14.979 -32.868 -18.112  0.00  0.00    +0.000 C 
ATOM     13  O   UNL     1     -15.961 -32.157 -17.872  0.00  0.00    +0.000 OA
ENDBRANCH   9  12
ENDBRANCH   8   9
ENDBRANCH   1   8
TORSDOF 5
REMARK  Name = ../refined-set-2016/3t08/3t08_pocket.pdb
REMARK  188 active torsions:
REMARK  status: ('A' for Active; 'I' for Inactive)
REMARK    1  A    between atoms: _1  and  _3
REMARK    2  A    between atoms: _3  and  _4
REMARK    3  A    between atoms: _3  and  _6
REMARK    4  A    between atoms: _6  and  _7
REMARK    5  A    between atoms: _12  and  _13
REMARK    6  A    between atoms: _15  and  _17
REMARK    7  A    between atoms: _17  and  _18
REMARK    8  A    between atoms: _17  and  _20
REMARK    9  A    between atoms: _20  and  _21
REMARK   10  A    between atoms: _26  and  _28
REMARK   11  A    between atoms: _28  and  _29
REMARK   12  A    between atoms: _28  and  _31
REMARK   13  A    between atoms: _34  and  _36
REMARK   14  A    between atoms: _36  and  _37
REMARK   15  A    between atoms: _36  and  _39
REMARK   16  A    between atoms: _39  and  _40
REMARK   17  A    between atoms: _43  and  _45
REMARK   18  A    between atoms: _45  and  _46
REMARK   19  A    between atoms: _45  and  _48
REMARK   20  A    between atoms: _48  and  _49
REMARK   21  A    between atoms: _49  and  _50
REMARK   22  A    between atoms: _55  and  _57
REMARK   23  A    between atoms: _57  and  _58
REMARK   24  A    between atoms: _57  and  _60
REMARK   25  A    between atoms: _60  and  _61
REMARK   26  A    between atoms: _64  and  _66
REMARK   27  A    between atoms: _66  and  _67
REMARK   28  A    between atoms: _66  and  _69
REMARK   29  A    between atoms: _69  and  _70
REMARK   30  A    between atoms: _70  and  _71
REMARK   31  A    between atoms: _73  and  _75
REMARK   32  A    between atoms: _75  and  _76
REMARK   33  A    between atoms: _75  and  _78
REMARK   34  A    between atoms: _78  and  _79
REMARK   35  A    between atoms: _84  and  _86
REMARK   36  A    between atoms: _86  and  _87
REMARK   37  A    between atoms: _86  and  _89
REMARK   38  A    between atoms: _89  and  _90
REMARK   39  A    between atoms: _95  and  _97
REMARK   40  A    between atoms: _97  and  _98
REMARK   41  A    between atoms: _97  and  _100
REMARK   42  A    between atoms: _100  and  _101
REMARK   43  A    between atoms: _101  and  _102
REMARK   44  A    between atoms: _102  and  _103
REMARK   45  A    between atoms: _112  and  _114
REMARK   46  A    between atoms: _114  and  _115
REMARK   47  A    between atoms: _114  and  _117
REMARK   48  A    between atoms: _117  and  _118
REMARK   49  A    between atoms: _123  and  _125
REMARK   50  A    between atoms: _125  and  _126
REMARK   51  A    between atoms: _125  and  _128
REMARK   52  A    between atoms: _128  and  _129
REMARK   53  A    between atoms: _129  and  _130
REMARK   54  A    between atoms: _133  and  _135
REMARK   55  A    between atoms: _135  and  _136
REMARK   56  A    between atoms: _135  and  _138
REMARK   57  A    between atoms: _138  and  _139
REMARK   58  A    between atoms: _140  and  MG_451
REMARK   59  A    between atoms: _144  and  _146
REMARK   60  A    between atoms: _146  and  _147
REMARK   61  A    between atoms: _146  and  _149
REMARK   62  A    between atoms: _149  and  _150
REMARK   63  A    between atoms: _150  and  _151
REMARK   64  A    between atoms: _153  and  _155
REMARK   65  A    between atoms: _155  and  _156
REMARK   66  A    between atoms: _155  and  _158
REMARK   67  A    between atoms: _158  and  _159
REMARK   68  A    between atoms: _164  and  _166
REMARK   69  A    between atoms: _166  and  _167
REMARK   70  A    between atoms: _166  and  _169
REMARK   71  A    between atoms: _169  and  _170
REMARK   72  A    between atoms: _170  and  _171
REMARK   73  A    between atoms: _174  and  _176
REMARK   74  A    between atoms: _176  and  _177
REMARK   75  A    between atoms: _176  and  _179
REMARK   76  A    between atoms: _179  and  _180
REMARK   77  A    between atoms: _180  and  _181
REMARK   78  A    between atoms: _184  and  _186
REMARK   79  A    between atoms: _186  and  _187
REMARK   80  A    between atoms: _186  and  _189
REMARK   81  A    between atoms: _189  and  _190
REMARK   82  A    between atoms: _190  and  _191
REMARK   83  A    between atoms: _193  and  _195
REMARK   84  A    between atoms: _195  and  _196
REMARK   85  A    between atoms: _195  and  _198
REMARK   86  A    between atoms: _198  and  _199
REMARK   87  A    between atoms: _204  and  _205
REMARK   88  A    between atoms: _207  and  _209
REMARK   89  A    between atoms: _209  and  _210
REMARK   90  A    between atoms: _209  and  _212
REMARK   91  A    between atoms: _212  and  _213
REMARK   92  A    between atoms: _213  and  _214
REMARK   93  A    between atoms: _214  and  _215
REMARK   94  A    between atoms: _215  and  _216
REMARK   95  A    between atoms: _220  and  _222
REMARK   96  A    between atoms: _222  and  _223
REMARK   97  A    between atoms: _222  and  _225
REMARK   98  A    between atoms: _227  and  _229
REMARK   99  A    between atoms: _229  and  _230
REMARK  100  A    between atoms: _229  and  _232
REMARK  101  A    between atoms: _232  and  _233
REMARK  102  A    between atoms: _233  and  _234
REMARK  103  A    between atoms: _237  and  _239
REMARK  104  A    between atoms: _239  and  _240
REMARK  105  A    between atoms: _239  and  _242
REMARK  106  A    between atoms: _242  and  _243
REMARK  107  A    between atoms: _248  and  _250
REMARK  108  A    between atoms: _250  and  _251
REMARK  109  A    between atoms: _254  and  _256
REMARK  110  A    between atoms: _256  and  _257
REMARK  111  A    between atoms: _256  and  _259
REMARK  112  A    between atoms: _259  and  _260
REMARK  113  A    between atoms: _260  and  _261
REMARK  114  A    between atoms: _263  and  _265
REMARK  115  A    between atoms: _265  and  _266
REMARK  116  A    between atoms: _265  and  _268
REMARK  117  A    between atoms: _268  and  _269
REMARK  118  A    between atoms: _279  and  _281
REMARK  119  A    between atoms: _281  and  _282
REMARK  120  A    between atoms: _281  and  _284
REMARK  121  A    between atoms: _284  and  _285
REMARK  122  A    between atoms: _288  and  _290
REMARK  123  A    between atoms: _290  and  _291
REMARK  124  A    between atoms: _290  and  _293
REMARK  125  A    between atoms: _293  and  _294
REMARK  126  A    between atoms: _294  and  _295
REMARK  127  A    between atoms: _300  and  _302
REMARK  128  A    between atoms: _302  and  _303
REMARK  129  A    between atoms: _302  and  _305
REMARK  130  A    between atoms: _305  and  _306
REMARK  131  A    between atoms: _309  and  _311
REMARK  132  A    between atoms: _311  and  _312
REMARK  133  A    between atoms: _311  and  _314
REMARK  134  A    between atoms: _314  and  _315
REMARK  135  A    between atoms: _315  and  _316
REMARK  136  A    between atoms: _321  and  _323
REMARK  137  A    between atoms: _323  and  _324
REMARK  138  A    between atoms: _323  and  _326
REMARK  139  A    between atoms: _326  and  _327
REMARK  140  A    between atoms: _333  and  _335
REMARK  141  A    between atoms: _335  and  _336
REMARK  142  A    between atoms: _335  and  _338
REMARK  143  A    between atoms: _340  and  _342
REMARK  144  A    between atoms: _342  and  _343
REMARK  145  A    between atoms: _342  and  _345
REMARK  146  A    between atoms: _345  and  _346
REMARK  147  A    between atoms: _346  and  _347
REMARK  148  A    between atoms: _349  and  _351
REMARK  149  A    between atoms: _351  and  _352
REMARK  150  A    between atoms: _351  and  _354
REMARK  151  A    between atoms: _354  and  _355
REMARK  152  A    between atoms: _360  and  _362
REMARK  153  A    between atoms: _362  and  _363
REMARK  154  A    between atoms: _365  and  _367
REMARK  155  A    between atoms: _367  and  _368
REMARK  156  A    between atoms: _367  and  _370
REMARK  157  A    between atoms: _373  and  _375
REMARK  158  A    between atoms: _375  and  _376
REMARK  159  A    between atoms: _375  and  _378
REMARK  160  A    between atoms: _378  and  _379
REMARK  161  A    between atoms: _379  and  _380
REMARK  162  A    between atoms: _383  and  _385
REMARK  163  A    between atoms: _385  and  _386
REMARK  164  A    between atoms: _385  and  _388
REMARK  165  A    between atoms: _388  and  _389
REMARK  166  A    between atoms: _392  and  _394
REMARK  167  A    between atoms: _394  and  _395
REMARK  168  A    between atoms: _394  and  _397
REMARK  169  A    between atoms: _397  and  _398
REMARK  170  A    between atoms: _400  and  _402
REMARK  171  A    between atoms: _402  and  _403
REMARK  172  A    between atoms: _402  and  _405
REMARK  173  A    between atoms: _405  and  _406
REMARK  174  A    between atoms: _416  and  _418
REMARK  175  A    between atoms: _418  and  _419
REMARK  176  A    between atoms: _418  and  _421
REMARK  177  A    between atoms: _421  and  _422
REMARK  178  A    between atoms: _424  and  _426
REMARK  179  A    between atoms: _426  and  _427
REMARK  180  A    between atoms: _426  and  _429
REMARK  181  A    between atoms: _429  and  _430
REMARK  182  A    between atoms: _430  and  _431
REMARK  183  A    between atoms: _434  and  _436
REMARK  184  A    between atoms: _436  and  _437
REMARK  185  A    between atoms: _436  and  _439
REMARK  186  A    between atoms: _439  and  _440
REMARK  187  A    between atoms: _440  and  _441
REMARK  188  A    between atoms: _441  and  _442
REMARK                            x       y       z     vdW  Elec       q    Type
REMARK                         _______ _______ _______ _____ _____    ______ ____
ROOT
ATOM      1  CA  MET A   1     -15.870 -29.924 -13.691  0.00  0.00    +0.134 C 
ENDROOT
BRANCH   1   2
ATOM      2  N   MET A   1     -17.206 -29.649 -13.184  0.00  0.00    -0.239 NA
ATOM      3  H   MET A   1     -17.687 -28.767 -13.452  0.00  0.00    +0.142 HD
ENDBRANCH   1   2
BRANCH   1   4
ATOM      4  C   MET A   1     -14.797 -30.057 -12.613  0.00  0.00    +0.224 C 
ATOM      5  O   MET A   1     -13.790 -30.734 -12.833  0.00  0.00    -0.287 OA
ENDBRANCH   1   4
BRANCH   1   6
ATOM      6  CB  MET A   1     -15.463 -28.889 -14.734  0.00  0.00    +0.037 C 
BRANCH   6   7
ATOM      7  CG  MET A   1     -14.653 -29.472 -15.857  0.00  0.00    +0.059 C 
BRANCH   7   8
ATOM      8  SD  MET A   1     -14.023 -28.217 -16.995  0.00  0.00    -0.139 S 
ATOM      9  CE  MET A   1     -15.542 -27.499 -17.623  0.00  0.00    +0.069 C 
ENDBRANCH   7   8
ENDBRANCH   6   7
ENDBRANCH   1   6
TORSDOF 5
REMARK  Name = ../refined-set-2016/3t08/3t08_pocket.pdb
REMARK  188 active torsions:
REMARK  status: ('A' for Active; 'I' for Inactive)
REMARK    1  A    between atoms: _1  and  _3
REMARK    2  A    between atoms: _3  and  _4
REMARK    3  A    between atoms: _3  and  _6
REMARK    4  A    between atoms: _6  and  _7
REMARK    5  A    between atoms: _12  and  _13
REMARK    6  A    between atoms: _15  and  _17
REMARK    7  A    between atoms: _17  and  _18
REMARK    8  A    between atoms: _17  and  _20
REMARK    9  A    between atoms: _20  and  _21
REMARK   10  A    between atoms: _26  and  _28
REMARK   11  A    between atoms: _28  and  _29
REMARK   12  A    between atoms: _28  and  _31
REMARK   13  A    between atoms: _34  and  _36
REMARK   14  A    between atoms: _36  and  _37
REMARK   15  A    between atoms: _36  and  _39
REMARK   16  A    between atoms: _39  and  _40
REMARK   17  A    between atoms: _43  and  _45
REMARK   18  A    between atoms: _45  and  _46
REMARK   19  A    between atoms: _45  and  _48
REMARK   20  A    between atoms: _48  and  _49
REMARK   21  A    between atoms: _49  and  _50
REMARK   22  A    between atoms: _55  and  _57
REMARK   23  A    between atoms: _57  and  _58
REMARK   24  A    between atoms: _57  and  _60
REMARK   25  A    between atoms: _60  and  _61
REMARK   26  A    between atoms: _64  and  _66
REMARK   27  A    between atoms: _66  and  _67
REMARK   28  A    between atoms: _66  and  _69
REMARK   29  A    between atoms: _69  and  _70
REMARK   30  A    between atoms: _70  and  _71
REMARK   31  A    between atoms: _73  and  _75
REMARK   32  A    between atoms: _75  and  _76
REMARK   33  A    between atoms: _75  and  _78
REMARK   34  A    between atoms: _78  and  _79
REMARK   35  A    between atoms: _84  and  _86
REMARK   36  A    between atoms: _86  and  _87
REMARK   37  A    between atoms: _86  and  _89
REMARK   38  A    between atoms: _89  and  _90
REMARK   39  A    between atoms: _95  and  _97
REMARK   40  A    between atoms: _97  and  _98
REMARK   41  A    between atoms: _97  and  _100
REMARK   42  A    between atoms: _100  and  _101
REMARK   43  A    between atoms: _101  and  _102
REMARK   44  A    between atoms: _102  and  _103
REMARK   45  A    between atoms: _112  and  _114
REMARK   46  A    between atoms: _114  and  _115
REMARK   47  A    between atoms: _114  and  _117
REMARK   48  A    between atoms: _117  and  _118
REMARK   49  A    between atoms: _123  and  _125
REMARK   50  A    between atoms: _125  and  _126
REMARK   51  A    between atoms: _125  and  _128
REMARK   52  A    between atoms: _128  and  _129
REMARK   53  A    between atoms: _129  and  _130
REMARK   54  A    between atoms: _133  and  _135
REMARK   55  A    between atoms: _135  and  _136
REMARK   56  A    between atoms: _135  and  _138
REMARK   57  A    between atoms: _138  and  _139
REMARK   58  A    between atoms: _140  and  MG_451
REMARK   59  A    between atoms: _144  and  _146
REMARK   60  A    between atoms: _146  and  _147
REMARK   61  A    between atoms: _146  and  _149
REMARK   62  A    between atoms: _149  and  _150
REMARK   63  A    between atoms: _150  and  _151
REMARK   64  A    between atoms: _153  and  _155
REMARK   65  A    between atoms: _155  and  _156
REMARK   66  A    between atoms: _155  and  _158
REMARK   67  A    between atoms: _158  and  _159
REMARK   68  A    between atoms: _164  and  _166
REMARK   69  A    between atoms: _166  and  _167
REMARK   70  A    between atoms: _166  and  _169
REMARK   71  A    between atoms: _169  and  _170
REMARK   72  A    between atoms: _170  and  _171
REMARK   73  A    between atoms: _174  and  _176
REMARK   74  A    between atoms: _176  and  _177
REMARK   75  A    between atoms: _176  and  _179
REMARK   76  A    between atoms: _179  and  _180
REMARK   77  A    between atoms: _180  and  _181
REMARK   78  A    between atoms: _184  and  _186
REMARK   79  A    between atoms: _186  and  _187
REMARK   80  A    between atoms: _186  and  _189
REMARK   81  A    between atoms: _189  and  _190
REMARK   82  A    between atoms: _190  and  _191
REMARK   83  A    between atoms: _193  and  _195
REMARK   84  A    between atoms: _195  and  _196
REMARK   85  A    between atoms: _195  and  _198
REMARK   86  A    between atoms: _198  and  _199
REMARK   87  A    between atoms: _204  and  _205
REMARK   88  A    between atoms: _207  and  _209
REMARK   89  A    between atoms: _209  and  _210
REMARK   90  A    between atoms: _209  and  _212
REMARK   91  A    between atoms: _212  and  _213
REMARK   92  A    between atoms: _213  and  _214
REMARK   93  A    between atoms: _214  and  _215
REMARK   94  A    between atoms: _215  and  _216
REMARK   95  A    between atoms: _220  and  _222
REMARK   96  A    between atoms: _222  and  _223
REMARK   97  A    between atoms: _222  and  _225
REMARK   98  A    between atoms: _227  and  _229
REMARK   99  A    between atoms: _229  and  _230
REMARK  100  A    between atoms: _229  and  _232
REMARK  101  A    between atoms: _232  and  _233
REMARK  102  A    between atoms: _233  and  _234
REMARK  103  A    between atoms: _237  and  _239
REMARK  104  A    between atoms: _239  and  _240
REMARK  105  A    between atoms: _239  and  _242
REMARK  106  A    between atoms: _242  and  _243
REMARK  107  A    between atoms: _248  and  _250
REMARK  108  A    between atoms: _250  and  _251
REMARK  109  A    between atoms: _254  and  _256
REMARK  110  A    between atoms: _256  and  _257
REMARK  111  A    between atoms: _256  and  _259
REMARK  112  A    between atoms: _259  and  _260
REMARK  113  A    between atoms: _260  and  _261
REMARK  114  A    between atoms: _263  and  _265
REMARK  115  A    between atoms: _265  and  _266
REMARK  116  A    between atoms: _265  and  _268
REMARK  117  A    between atoms: _268  and  _269
REMARK  118  A    between atoms: _279  and  _281
REMARK  119  A    between atoms: _281  and  _282
REMARK  120  A    between atoms: _281  and  _284
REMARK  121  A    between atoms: _284  and  _285
REMARK  122  A    between atoms: _288  and  _290
REMARK  123  A    between atoms: _290  and  _291
REMARK  124  A    between atoms: _290  and  _293
REMARK  125  A    between atoms: _293  and  _294
REMARK  126  A    between atoms: _294  and  _295
REMARK  127  A    between atoms: _300  and  _302
REMARK  128  A    between atoms: _302  and  _303
REMARK  129  A    between atoms: _302  and  _305
REMARK  130  A    between atoms: _305  and  _306
REMARK  131  A    between atoms: _309  and  _311
REMARK  132  A    between atoms: _311  and  _312
REMARK  133  A    between atoms: _311  and  _314
REMARK  134  A    between atoms: _314  and  _315
REMARK  135  A    between atoms: _315  and  _316
REMARK  136  A    between atoms: _321  and  _323
REMARK  137  A    between atoms: _323  and  _324
REMARK  138  A    between atoms: _323  and  _326
REMARK  139  A    between atoms: _326  and  _327
REMARK  140  A    between atoms: _333  and  _335
REMARK  141  A    between atoms: _335  and  _336
REMARK  142  A    between atoms: _335  and  _338
REMARK  143  A    between atoms: _340  and  _342
REMARK  144  A    between atoms: _342  and  _343
REMARK  145  A    between atoms: _342  and  _345
REMARK  146  A    between atoms: _345  and  _346
REMARK  147  A    between atoms: _346  and  _347
REMARK  148  A    between atoms: _349  and  _351
REMARK  149  A    between atoms: _351  and  _352
REMARK  150  A    between atoms: _351  and  _354
REMARK  151  A    between atoms: _354  and  _355
REMARK  152  A    between atoms: _360  and  _362
REMARK  153  A    between atoms: _362  and  _363
REMARK  154  A    between atoms: _365  and  _367
REMARK  155  A    between atoms: _367  and  _368
REMARK  156  A    between atoms: _367  and  _370
REMARK  157  A    between atoms: _373  and  _375
REMARK  158  A    between atoms: _375  and  _376
REMARK  159  A    between atoms: _375  and  _378
REMARK  160  A    between atoms: _378  and  _379
REMARK  161  A    between atoms: _379  and  _380
REMARK  162  A    between atoms: _383  and  _385
REMARK  163  A    between atoms: _385  and  _386
REMARK  164  A    between atoms: _385  and  _388
REMARK  165  A    between atoms: _388  and  _389
REMARK  166  A    between atoms: _392  and  _394
REMARK  167  A    between atoms: _394  and  _395
REMARK  168  A    between atoms: _394  and  _397
REMARK  169  A    between atoms: _397  and  _398
REMARK  170  A    between atoms: _400  and  _402
REMARK  171  A    between atoms: _402  and  _403
REMARK  172  A    between atoms: _402  and  _405
REMARK  173  A    between atoms: _405  and  _406
REMARK  174  A    between atoms: _416  and  _418
REMARK  175  A    between atoms: _418  and  _419
REMARK  176  A    between atoms: _418  and  _421
REMARK  177  A    between atoms: _421  and  _422
REMARK  178  A    between atoms: _424  and  _426
REMARK  179  A    between atoms: _426  and  _427
REMARK  180  A    between atoms: _426  and  _429
REMARK  181  A    between atoms: _429  and  _430
REMARK  182  A    between atoms: _430  and  _431
REMARK  183  A    between atoms: _434  and  _436
REMARK  184  A    between atoms: _436  and  _437
REMARK  185  A    between atoms: _436  and  _439
REMARK  186  A    between atoms: _439  and  _440
REMARK  187  A    between atoms: _440  and  _441
REMARK  188  A    between atoms: _441  and  _442
REMARK                            x       y       z     vdW  Elec       q    Type
REMARK                         _______ _______ _______ _____ _____    ______ ____
ROOT
ATOM      1  C   ASN A   1      -8.199 -28.608 -18.281  0.00  0.00    +0.239 C 
ATOM      2  O   ASN A   1      -8.363 -29.747 -17.840  0.00  0.00    -0.274 OA
ATOM      3  N   GLU A   2      -9.182 -27.721 -18.422  0.00  0.00    -0.298 N 
ATOM      4  H   GLU A   2      -8.935 -26.740 -18.662  0.00  0.00    +0.150 HD
ENDROOT
BRANCH   1   5
ATOM      5  CA  ASN A   1      -6.821 -28.138 -18.696  0.00  0.00    +0.154 C 
BRANCH   5   6
ATOM      6  N   ASN A   1      -5.804 -28.679 -17.823  0.00  0.00    -0.238 NA
ATOM      7  H   ASN A   1      -5.942 -29.618 -17.397  0.00  0.00    +0.142 HD
ENDBRANCH   5   6
BRANCH   5   8
ATOM      8  CB  ASN A   1      -6.546 -28.586 -20.134  0.00  0.00    +0.111 C 
BRANCH   8   9
ATOM      9  CG  ASN A   1      -7.395 -27.841 -21.148  0.00  0.00    +0.221 C 
ATOM     10  OD1 ASN A   1      -7.337 -26.611 -21.237  0.00  0.00    -0.275 OA
ATOM     11  ND2 ASN A   1      -8.184 -28.584 -21.926  0.00  0.00    -0.329 N 
ATOM     12 HD21 ASN A   1      -8.200 -29.618 -21.815  0.00  0.00    +0.145 HD
ATOM     13 HD22 ASN A   1      -8.784 -28.129 -22.644  0.00  0.00    +0.145 HD
ENDBRANCH   8   9
ENDBRANCH   5   8
ENDBRANCH   1   5
BRANCH   3  14
ATOM     14  CA  GLU A   2     -10.594 -28.065 -18.255  0.00  0.00    +0.137 C 
BRANCH  14  15
ATOM     15  C   GLU A   2     -10.857 -29.038 -17.097  0.00  0.00    +0.227 C 
ATOM     16  O   GLU A   2     -11.345 -30.153 -17.291  0.00  0.00    -0.286 OA
ENDBRANCH  14  15
BRANCH  14  17
ATOM     17  CB  GLU A   2     -11.168 -28.570 -19.592  0.00  0.00    +0.039 C 
BRANCH  17  18
ATOM     18  CG  GLU A   2     -11.177 -27.464 -20.655  0.00  0.00    +0.116 C 
BRANCH  18  19
ATOM     19  CD  GLU A   2     -11.657 -27.904 -22.032  0.00  0.00    +0.365 C 
ATOM     20  OE2 GLU A   2     -11.257 -28.985 -22.521  0.00  0.00    -0.246 OA
ATOM     21  OE1 GLU A   2     -12.429 -27.135 -22.641  0.00  0.00    -0.246 OA
ENDBRANCH  18  19
ENDBRANCH  17  18
ENDBRANCH  14  17
ENDBRANCH   3  14
TORSDOF 9
REMARK  Name = ../refined-set-2016/3t08/3t08_pocket.pdb
REMARK  188 active torsions:
REMARK  status: ('A' for Active; 'I' for Inactive)
REMARK    1  A    between atoms: _1  and  _3
REMARK    2  A    between atoms: _3  and  _4
REMARK    3  A    between atoms: _3  and  _6
REMARK    4  A    between atoms: _6  and  _7
REMARK    5  A    between atoms: _12  and  _13
REMARK    6  A    between atoms: _15  and  _17
REMARK    7  A    between atoms: _17  and  _18
REMARK    8  A    between atoms: _17  and  _20
REMARK    9  A    between atoms: _20  and  _21
REMARK   10  A    between atoms: _26  and  _28
REMARK   11  A    between atoms: _28  and  _29
REMARK   12  A    between atoms: _28  and  _31
REMARK   13  A    between atoms: _34  and  _36
REMARK   14  A    between atoms: _36  and  _37
REMARK   15  A    between atoms: _36  and  _39
REMARK   16  A    between atoms: _39  and  _40
REMARK   17  A    between atoms: _43  and  _45
REMARK   18  A    between atoms: _45  and  _46
REMARK   19  A    between atoms: _45  and  _48
REMARK   20  A    between atoms: _48  and  _49
REMARK   21  A    between atoms: _49  and  _50
REMARK   22  A    between atoms: _55  and  _57
REMARK   23  A    between atoms: _57  and  _58
REMARK   24  A    between atoms: _57  and  _60
REMARK   25  A    between atoms: _60  and  _61
REMARK   26  A    between atoms: _64  and  _66
REMARK   27  A    between atoms: _66  and  _67
REMARK   28  A    between atoms: _66  and  _69
REMARK   29  A    between atoms: _69  and  _70
REMARK   30  A    between atoms: _70  and  _71
REMARK   31  A    between atoms: _73  and  _75
REMARK   32  A    between atoms: _75  and  _76
REMARK   33  A    between atoms: _75  and  _78
REMARK   34  A    between atoms: _78  and  _79
REMARK   35  A    between atoms: _84  and  _86
REMARK   36  A    between atoms: _86  and  _87
REMARK   37  A    between atoms: _86  and  _89
REMARK   38  A    between atoms: _89  and  _90
REMARK   39  A    between atoms: _95  and  _97
REMARK   40  A    between atoms: _97  and  _98
REMARK   41  A    between atoms: _97  and  _100
REMARK   42  A    between atoms: _100  and  _101
REMARK   43  A    between atoms: _101  and  _102
REMARK   44  A    between atoms: _102  and  _103
REMARK   45  A    between atoms: _112  and  _114
REMARK   46  A    between atoms: _114  and  _115
REMARK   47  A    between atoms: _114  and  _117
REMARK   48  A    between atoms: _117  and  _118
REMARK   49  A    between atoms: _123  and  _125
REMARK   50  A    between atoms: _125  and  _126
REMARK   51  A    between atoms: _125  and  _128
REMARK   52  A    between atoms: _128  and  _129
REMARK   53  A    between atoms: _129  and  _130
REMARK   54  A    between atoms: _133  and  _135
REMARK   55  A    between atoms: _135  and  _136
REMARK   56  A    between atoms: _135  and  _138
REMARK   57  A    between atoms: _138  and  _139
REMARK   58  A    between atoms: _140  and  MG_451
REMARK   59  A    between atoms: _144  and  _146
REMARK   60  A    between atoms: _146  and  _147
REMARK   61  A    between atoms: _146  and  _149
REMARK   62  A    between atoms: _149  and  _150
REMARK   63  A    between atoms: _150  and  _151
REMARK   64  A    between atoms: _153  and  _155
REMARK   65  A    between atoms: _155  and  _156
REMARK   66  A    between atoms: _155  and  _158
REMARK   67  A    between atoms: _158  and  _159
REMARK   68  A    between atoms: _164  and  _166
REMARK   69  A    between atoms: _166  and  _167
REMARK   70  A    between atoms: _166  and  _169
REMARK   71  A    between atoms: _169  and  _170
REMARK   72  A    between atoms: _170  and  _171
REMARK   73  A    between atoms: _174  and  _176
REMARK   74  A    between atoms: _176  and  _177
REMARK   75  A    between atoms: _176  and  _179
REMARK   76  A    between atoms: _179  and  _180
REMARK   77  A    between atoms: _180  and  _181
REMARK   78  A    between atoms: _184  and  _186
REMARK   79  A    between atoms: _186  and  _187
REMARK   80  A    between atoms: _186  and  _189
REMARK   81  A    between atoms: _189  and  _190
REMARK   82  A    between atoms: _190  and  _191
REMARK   83  A    between atoms: _193  and  _195
REMARK   84  A    between atoms: _195  and  _196
REMARK   85  A    between atoms: _195  and  _198
REMARK   86  A    between atoms: _198  and  _199
REMARK   87  A    between atoms: _204  and  _205
REMARK   88  A    between atoms: _207  and  _209
REMARK   89  A    between atoms: _209  and  _210
REMARK   90  A    between atoms: _209  and  _212
REMARK   91  A    between atoms: _212  and  _213
REMARK   92  A    between atoms: _213  and  _214
REMARK   93  A    between atoms: _214  and  _215
REMARK   94  A    between atoms: _215  and  _216
REMARK   95  A    between atoms: _220  and  _222
REMARK   96  A    between atoms: _222  and  _223
REMARK   97  A    between atoms: _222  and  _225
REMARK   98  A    between atoms: _227  and  _229
REMARK   99  A    between atoms: _229  and  _230
REMARK  100  A    between atoms: _229  and  _232
REMARK  101  A    between atoms: _232  and  _233
REMARK  102  A    between atoms: _233  and  _234
REMARK  103  A    between atoms: _237  and  _239
REMARK  104  A    between atoms: _239  and  _240
REMARK  105  A    between atoms: _239  and  _242
REMARK  106  A    between atoms: _242  and  _243
REMARK  107  A    between atoms: _248  and  _250
REMARK  108  A    between atoms: _250  and  _251
REMARK  109  A    between atoms: _254  and  _256
REMARK  110  A    between atoms: _256  and  _257
REMARK  111  A    between atoms: _256  and  _259
REMARK  112  A    between atoms: _259  and  _260
REMARK  113  A    between atoms: _260  and  _261
REMARK  114  A    between atoms: _263  and  _265
REMARK  115  A    between atoms: _265  and  _266
REMARK  116  A    between atoms: _265  and  _268
REMARK  117  A    between atoms: _268  and  _269
REMARK  118  A    between atoms: _279  and  _281
REMARK  119  A    between atoms: _281  and  _282
REMARK  120  A    between atoms: _281  and  _284
REMARK  121  A    between atoms: _284  and  _285
REMARK  122  A    between atoms: _288  and  _290
REMARK  123  A    between atoms: _290  and  _291
REMARK  124  A    between atoms: _290  and  _293
REMARK  125  A    between atoms: _293  and  _294
REMARK  126  A    between atoms: _294  and  _295
REMARK  127  A    between atoms: _300  and  _302
REMARK  128  A    between atoms: _302  and  _303
REMARK  129  A    between atoms: _302  and  _305
REMARK  130  A    between atoms: _305  and  _306
REMARK  131  A    between atoms: _309  and  _311
REMARK  132  A    between atoms: _311  and  _312
REMARK  133  A    between atoms: _311  and  _314
REMARK  134  A    between atoms: _314  and  _315
REMARK  135  A    between atoms: _315  and  _316
REMARK  136  A    between atoms: _321  and  _323
REMARK  137  A    between atoms: _323  and  _324
REMARK  138  A    between atoms: _323  and  _326
REMARK  139  A    between atoms: _326  and  _327
REMARK  140  A    between atoms: _333  and  _335
REMARK  141  A    between atoms: _335  and  _336
REMARK  142  A    between atoms: _335  and  _338
REMARK  143  A    between atoms: _340  and  _342
REMARK  144  A    between atoms: _342  and  _343
REMARK  145  A    between atoms: _342  and  _345
REMARK  146  A    between atoms: _345  and  _346
REMARK  147  A    between atoms: _346  and  _347
REMARK  148  A    between atoms: _349  and  _351
REMARK  149  A    between atoms: _351  and  _352
REMARK  150  A    between atoms: _351  and  _354
REMARK  151  A    between atoms: _354  and  _355
REMARK  152  A    between atoms: _360  and  _362
REMARK  153  A    between atoms: _362  and  _363
REMARK  154  A    between atoms: _365  and  _367
REMARK  155  A    between atoms: _367  and  _368
REMARK  156  A    between atoms: _367  and  _370
REMARK  157  A    between atoms: _373  and  _375
REMARK  158  A    between atoms: _375  and  _376
REMARK  159  A    between atoms: _375  and  _378
REMARK  160  A    between atoms: _378  and  _379
REMARK  161  A    between atoms: _379  and  _380
REMARK  162  A    between atoms: _383  and  _385
REMARK  163  A    between atoms: _385  and  _386
REMARK  164  A    between atoms: _385  and  _388
REMARK  165  A    between atoms: _388  and  _389
REMARK  166  A    between atoms: _392  and  _394
REMARK  167  A    between atoms: _394  and  _395
REMARK  168  A    between atoms: _394  and  _397
REMARK  169  A    between atoms: _397  and  _398
REMARK  170  A    between atoms: _400  and  _402
REMARK  171  A    between atoms: _402  and  _403
REMARK  172  A    between atoms: _402  and  _405
REMARK  173  A    between atoms: _405  and  _406
REMARK  174  A    between atoms: _416  and  _418
REMARK  175  A    between atoms: _418  and  _419
REMARK  176  A    between atoms: _418  and  _421
REMARK  177  A    between atoms: _421  and  _422
REMARK  178  A    between atoms: _424  and  _426
REMARK  179  A    between atoms: _426  and  _427
REMARK  180  A    between atoms: _426  and  _429
REMARK  181  A    between atoms: _429  and  _430
REMARK  182  A    between atoms: _430  and  _431
REMARK  183  A    between atoms: _434  and  _436
REMARK  184  A    between atoms: _436  and  _437
REMARK  185  A    between atoms: _436  and  _439
REMARK  186  A    between atoms: _439  and  _440
REMARK  187  A    between atoms: _440  and  _441
REMARK  188  A    between atoms: _441  and  _442
REMARK                            x       y       z     vdW  Elec       q    Type
REMARK                         _______ _______ _______ _____ _____    ______ ____
ROOT
ATOM      1  CA  GLU A   1      -7.774 -21.524 -17.452  0.00  0.00    +0.134 C 
ENDROOT
BRANCH   1   2
ATOM      2  N   GLU A   1      -6.531 -22.120 -16.925  0.00  0.00    -0.239 NA
ATOM      3  H   GLU A   1      -6.180 -23.000 -17.355  0.00  0.00    +0.142 HD
ENDBRANCH   1   2
BRANCH   1   4
ATOM      4  C   GLU A   1      -9.038 -21.954 -16.706  0.00  0.00    +0.224 C 
ATOM      5  O   GLU A   1     -10.044 -21.245 -16.734  0.00  0.00    -0.287 OA
ENDBRANCH   1   4
BRANCH   1   6
ATOM      6  CB  GLU A   1      -7.919 -21.838 -18.958  0.00  0.00    +0.037 C 
BRANCH   6   7
ATOM      7  CG  GLU A   1      -9.216 -21.342 -19.622  0.00  0.00    +0.116 C 
BRANCH   7   8
ATOM      8  CD  GLU A   1     -10.444 -22.208 -19.339  0.00  0.00    +0.365 C 
ATOM      9  OE2 GLU A   1     -10.293 -23.381 -18.922  0.00  0.00    -0.246 OA
ATOM     10  OE1 GLU A   1     -11.570 -21.700 -19.523  0.00  0.00    -0.246 OA
ENDBRANCH   7   8
ENDBRANCH   6   7
ENDBRANCH   1   6
TORSDOF 5
REMARK  Name = ../refined-set-2016/3t08/3t08_pocket.pdb
REMARK  188 active torsions:
REMARK  status: ('A' for Active; 'I' for Inactive)
REMARK    1  A    between atoms: _1  and  _3
REMARK    2  A    between atoms: _3  and  _4
REMARK    3  A    between atoms: _3  and  _6
REMARK    4  A    between atoms: _6  and  _7
REMARK    5  A    between atoms: _12  and  _13
REMARK    6  A    between atoms: _15  and  _17
REMARK    7  A    between atoms: _17  and  _18
REMARK    8  A    between atoms: _17  and  _20
REMARK    9  A    between atoms: _20  and  _21
REMARK   10  A    between atoms: _26  and  _28
REMARK   11  A    between atoms: _28  and  _29
REMARK   12  A    between atoms: _28  and  _31
REMARK   13  A    between atoms: _34  and  _36
REMARK   14  A    between atoms: _36  and  _37
REMARK   15  A    between atoms: _36  and  _39
REMARK   16  A    between atoms: _39  and  _40
REMARK   17  A    between atoms: _43  and  _45
REMARK   18  A    between atoms: _45  and  _46
REMARK   19  A    between atoms: _45  and  _48
REMARK   20  A    between atoms: _48  and  _49
REMARK   21  A    between atoms: _49  and  _50
REMARK   22  A    between atoms: _55  and  _57
REMARK   23  A    between atoms: _57  and  _58
REMARK   24  A    between atoms: _57  and  _60
REMARK   25  A    between atoms: _60  and  _61
REMARK   26  A    between atoms: _64  and  _66
REMARK   27  A    between atoms: _66  and  _67
REMARK   28  A    between atoms: _66  and  _69
REMARK   29  A    between atoms: _69  and  _70
REMARK   30  A    between atoms: _70  and  _71
REMARK   31  A    between atoms: _73  and  _75
REMARK   32  A    between atoms: _75  and  _76
REMARK   33  A    between atoms: _75  and  _78
REMARK   34  A    between atoms: _78  and  _79
REMARK   35  A    between atoms: _84  and  _86
REMARK   36  A    between atoms: _86  and  _87
REMARK   37  A    between atoms: _86  and  _89
REMARK   38  A    between atoms: _89  and  _90
REMARK   39  A    between atoms: _95  and  _97
REMARK   40  A    between atoms: _97  and  _98
REMARK   41  A    between atoms: _97  and  _100
REMARK   42  A    between atoms: _100  and  _101
REMARK   43  A    between atoms: _101  and  _102
REMARK   44  A    between atoms: _102  and  _103
REMARK   45  A    between atoms: _112  and  _114
REMARK   46  A    between atoms: _114  and  _115
REMARK   47  A    between atoms: _114  and  _117
REMARK   48  A    between atoms: _117  and  _118
REMARK   49  A    between atoms: _123  and  _125
REMARK   50  A    between atoms: _125  and  _126
REMARK   51  A    between atoms: _125  and  _128
REMARK   52  A    between atoms: _128  and  _129
REMARK   53  A    between atoms: _129  and  _130
REMARK   54  A    between atoms: _133  and  _135
REMARK   55  A    between atoms: _135  and  _136
REMARK   56  A    between atoms: _135  and  _138
REMARK   57  A    between atoms: _138  and  _139
REMARK   58  A    between atoms: _140  and  MG_451
REMARK   59  A    between atoms: _144  and  _146
REMARK   60  A    between atoms: _146  and  _147
REMARK   61  A    between atoms: _146  and  _149
REMARK   62  A    between atoms: _149  and  _150
REMARK   63  A    between atoms: _150  and  _151
REMARK   64  A    between atoms: _153  and  _155
REMARK   65  A    between atoms: _155  and  _156
REMARK   66  A    between atoms: _155  and  _158
REMARK   67  A    between atoms: _158  and  _159
REMARK   68  A    between atoms: _164  and  _166
REMARK   69  A    between atoms: _166  and  _167
REMARK   70  A    between atoms: _166  and  _169
REMARK   71  A    between atoms: _169  and  _170
REMARK   72  A    between atoms: _170  and  _171
REMARK   73  A    between atoms: _174  and  _176
REMARK   74  A    between atoms: _176  and  _177
REMARK   75  A    between atoms: _176  and  _179
REMARK   76  A    between atoms: _179  and  _180
REMARK   77  A    between atoms: _180  and  _181
REMARK   78  A    between atoms: _184  and  _186
REMARK   79  A    between atoms: _186  and  _187
REMARK   80  A    between atoms: _186  and  _189
REMARK   81  A    between atoms: _189  and  _190
REMARK   82  A    between atoms: _190  and  _191
REMARK   83  A    between atoms: _193  and  _195
REMARK   84  A    between atoms: _195  and  _196
REMARK   85  A    between atoms: _195  and  _198
REMARK   86  A    between atoms: _198  and  _199
REMARK   87  A    between atoms: _204  and  _205
REMARK   88  A    between atoms: _207  and  _209
REMARK   89  A    between atoms: _209  and  _210
REMARK   90  A    between atoms: _209  and  _212
REMARK   91  A    between atoms: _212  and  _213
REMARK   92  A    between atoms: _213  and  _214
REMARK   93  A    between atoms: _214  and  _215
REMARK   94  A    between atoms: _215  and  _216
REMARK   95  A    between atoms: _220  and  _222
REMARK   96  A    between atoms: _222  and  _223
REMARK   97  A    between atoms: _222  and  _225
REMARK   98  A    between atoms: _227  and  _229
REMARK   99  A    between atoms: _229  and  _230
REMARK  100  A    between atoms: _229  and  _232
REMARK  101  A    between atoms: _232  and  _233
REMARK  102  A    between atoms: _233  and  _234
REMARK  103  A    between atoms: _237  and  _239
REMARK  104  A    between atoms: _239  and  _240
REMARK  105  A    between atoms: _239  and  _242
REMARK  106  A    between atoms: _242  and  _243
REMARK  107  A    between atoms: _248  and  _250
REMARK  108  A    between atoms: _250  and  _251
REMARK  109  A    between atoms: _254  and  _256
REMARK  110  A    between atoms: _256  and  _257
REMARK  111  A    between atoms: _256  and  _259
REMARK  112  A    between atoms: _259  and  _260
REMARK  113  A    between atoms: _260  and  _261
REMARK  114  A    between atoms: _263  and  _265
REMARK  115  A    between atoms: _265  and  _266
REMARK  116  A    between atoms: _265  and  _268
REMARK  117  A    between atoms: _268  and  _269
REMARK  118  A    between atoms: _279  and  _281
REMARK  119  A    between atoms: _281  and  _282
REMARK  120  A    between atoms: _281  and  _284
REMARK  121  A    between atoms: _284  and  _285
REMARK  122  A    between atoms: _288  and  _290
REMARK  123  A    between atoms: _290  and  _291
REMARK  124  A    between atoms: _290  and  _293
REMARK  125  A    between atoms: _293  and  _294
REMARK  126  A    between atoms: _294  and  _295
REMARK  127  A    between atoms: _300  and  _302
REMARK  128  A    between atoms: _302  and  _303
REMARK  129  A    between atoms: _302  and  _305
REMARK  130  A    between atoms: _305  and  _306
REMARK  131  A    between atoms: _309  and  _311
REMARK  132  A    between atoms: _311  and  _312
REMARK  133  A    between atoms: _311  and  _314
REMARK  134  A    between atoms: _314  and  _315
REMARK  135  A    between atoms: _315  and  _316
REMARK  136  A    between atoms: _321  and  _323
REMARK  137  A    between atoms: _323  and  _324
REMARK  138  A    between atoms: _323  and  _326
REMARK  139  A    between atoms: _326  and  _327
REMARK  140  A    between atoms: _333  and  _335
REMARK  141  A    between atoms: _335  and  _336
REMARK  142  A    between atoms: _335  and  _338
REMARK  143  A    between atoms: _340  and  _342
REMARK  144  A    between atoms: _342  and  _343
REMARK  145  A    between atoms: _342  and  _345
REMARK  146  A    between atoms: _345  and  _346
REMARK  147  A    between atoms: _346  and  _347
REMARK  148  A    between atoms: _349  and  _351
REMARK  149  A    between atoms: _351  and  _352
REMARK  150  A    between atoms: _351  and  _354
REMARK  151  A    between atoms: _354  and  _355
REMARK  152  A    between atoms: _360  and  _362
REMARK  153  A    between atoms: _362  and  _363
REMARK  154  A    between atoms: _365  and  _367
REMARK  155  A    between atoms: _367  and  _368
REMARK  156  A    between atoms: _367  and  _370
REMARK  157  A    between atoms: _373  and  _375
REMARK  158  A    between atoms: _375  and  _376
REMARK  159  A    between atoms: _375  and  _378
REMARK  160  A    between atoms: _378  and  _379
REMARK  161  A    between atoms: _379  and  _380
REMARK  162  A    between atoms: _383  and  _385
REMARK  163  A    between atoms: _385  and  _386
REMARK  164  A    between atoms: _385  and  _388
REMARK  165  A    between atoms: _388  and  _389
REMARK  166  A    between atoms: _392  and  _394
REMARK  167  A    between atoms: _394  and  _395
REMARK  168  A    between atoms: _394  and  _397
REMARK  169  A    between atoms: _397  and  _398
REMARK  170  A    between atoms: _400  and  _402
REMARK  171  A    between atoms: _402  and  _403
REMARK  172  A    between atoms: _402  and  _405
REMARK  173  A    between atoms: _405  and  _406
REMARK  174  A    between atoms: _416  and  _418
REMARK  175  A    between atoms: _418  and  _419
REMARK  176  A    between atoms: _418  and  _421
REMARK  177  A    between atoms: _421  and  _422
REMARK  178  A    between atoms: _424  and  _426
REMARK  179  A    between atoms: _426  and  _427
REMARK  180  A    between atoms: _426  and  _429
REMARK  181  A    between atoms: _429  and  _430
REMARK  182  A    between atoms: _430  and  _431
REMARK  183  A    between atoms: _434  and  _436
REMARK  184  A    between atoms: _436  and  _437
REMARK  185  A    between atoms: _436  and  _439
REMARK  186  A    between atoms: _439  and  _440
REMARK  187  A    between atoms: _440  and  _441
REMARK  188  A    between atoms: _441  and  _442
REMARK                            x       y       z     vdW  Elec       q    Type
REMARK                         _______ _______ _______ _____ _____    ______ ____
ROOT
ATOM      1  CA  TYR A   2     -12.601 -18.698 -27.072  0.00  0.00    +0.141 C 
ENDROOT
BRANCH   1   4
ATOM      2  C   MET A   1     -11.756 -19.564 -24.930  0.00  0.00    +0.238 C 
ATOM      3  O   MET A   1     -12.867 -19.565 -24.406  0.00  0.00    -0.274 OA
ATOM      4  N   TYR A   2     -11.525 -19.095 -26.154  0.00  0.00    -0.298 N 
ATOM      5  H   TYR A   2     -10.540 -19.006 -26.475  0.00  0.00    +0.150 HD
BRANCH   2   6
ATOM      6  CA  MET A   1     -10.537 -20.079 -24.171  0.00  0.00    +0.146 C 
BRANCH   6   7
ATOM      7  N   MET A   1     -10.434 -19.396 -22.893  0.00  0.00    -0.238 NA
ATOM      8  H   MET A   1     -11.146 -19.564 -22.153  0.00  0.00    +0.142 HD
ENDBRANCH   6   7
BRANCH   6   9
ATOM      9  CB  MET A   1     -10.539 -21.606 -24.009  0.00  0.00    +0.038 C 
BRANCH   9  10
ATOM     10  CG  MET A   1     -11.457 -22.178 -22.944  0.00  0.00    +0.060 C 
BRANCH  10  11
ATOM     11  SD  MET A   1     -11.401 -24.000 -22.913  0.00  0.00    -0.139 S 
ATOM     12  CE  MET A   1      -9.695 -24.296 -22.491  0.00  0.00    +0.069 C 
ENDBRANCH  10  11
ENDBRANCH   9  10
ENDBRANCH   6   9
ENDBRANCH   2   6
ENDBRANCH   1   4
BRANCH   1  13
ATOM     13  C   TYR A   2     -13.401 -17.490 -26.576  0.00  0.00    +0.227 C 
ATOM     14  O   TYR A   2     -14.562 -17.311 -26.939  0.00  0.00    -0.286 OA
ENDBRANCH   1  13
BRANCH   1  15
ATOM     15  CB  TYR A   2     -13.511 -19.907 -27.413  0.00  0.00    +0.054 C 
BRANCH  15  16
ATOM     16  CG  TYR A   2     -12.699 -21.157 -27.706  0.00  0.00    -0.020 A 
ATOM     17  CD2 TYR A   2     -12.584 -22.170 -26.754  0.00  0.00    -0.001 A 
ATOM     18  CE2 TYR A   2     -11.825 -23.286 -26.988  0.00  0.00    +0.036 A 
ATOM     19  CZ  TYR A   2     -11.157 -23.421 -28.191  0.00  0.00    +0.134 A 
ATOM     20  CE1 TYR A   2     -11.232 -22.436 -29.158  0.00  0.00    +0.036 A 
ATOM     21  CD1 TYR A   2     -12.009 -21.302 -28.908  0.00  0.00    -0.001 A 
BRANCH  19  22
ATOM     22  OH  TYR A   2     -10.405 -24.544 -28.406  0.00  0.00    -0.506 OA
ATOM     23  HH  TYR A   2     -10.466 -25.137 -27.615  0.00  0.00    +0.292 HD
ENDBRANCH  19  22
ENDBRANCH  15  16
ENDBRANCH   1  15
TORSDOF 10
REMARK  Name = ../refined-set-2016/3t08/3t08_pocket.pdb
REMARK  188 active torsions:
REMARK  status: ('A' for Active; 'I' for Inactive)
REMARK    1  A    between atoms: _1  and  _3
REMARK    2  A    between atoms: _3  and  _4
REMARK    3  A    between atoms: _3  and  _6
REMARK    4  A    between atoms: _6  and  _7
REMARK    5  A    between atoms: _12  and  _13
REMARK    6  A    between atoms: _15  and  _17
REMARK    7  A    between atoms: _17  and  _18
REMARK    8  A    between atoms: _17  and  _20
REMARK    9  A    between atoms: _20  and  _21
REMARK   10  A    between atoms: _26  and  _28
REMARK   11  A    between atoms: _28  and  _29
REMARK   12  A    between atoms: _28  and  _31
REMARK   13  A    between atoms: _34  and  _36
REMARK   14  A    between atoms: _36  and  _37
REMARK   15  A    between atoms: _36  and  _39
REMARK   16  A    between atoms: _39  and  _40
REMARK   17  A    between atoms: _43  and  _45
REMARK   18  A    between atoms: _45  and  _46
REMARK   19  A    between atoms: _45  and  _48
REMARK   20  A    between atoms: _48  and  _49
REMARK   21  A    between atoms: _49  and  _50
REMARK   22  A    between atoms: _55  and  _57
REMARK   23  A    between atoms: _57  and  _58
REMARK   24  A    between atoms: _57  and  _60
REMARK   25  A    between atoms: _60  and  _61
REMARK   26  A    between atoms: _64  and  _66
REMARK   27  A    between atoms: _66  and  _67
REMARK   28  A    between atoms: _66  and  _69
REMARK   29  A    between atoms: _69  and  _70
REMARK   30  A    between atoms: _70  and  _71
REMARK   31  A    between atoms: _73  and  _75
REMARK   32  A    between atoms: _75  and  _76
REMARK   33  A    between atoms: _75  and  _78
REMARK   34  A    between atoms: _78  and  _79
REMARK   35  A    between atoms: _84  and  _86
REMARK   36  A    between atoms: _86  and  _87
REMARK   37  A    between atoms: _86  and  _89
REMARK   38  A    between atoms: _89  and  _90
REMARK   39  A    between atoms: _95  and  _97
REMARK   40  A    between atoms: _97  and  _98
REMARK   41  A    between atoms: _97  and  _100
REMARK   42  A    between atoms: _100  and  _101
REMARK   43  A    between atoms: _101  and  _102
REMARK   44  A    between atoms: _102  and  _103
REMARK   45  A    between atoms: _112  and  _114
REMARK   46  A    between atoms: _114  and  _115
REMARK   47  A    between atoms: _114  and  _117
REMARK   48  A    between atoms: _117  and  _118
REMARK   49  A    between atoms: _123  and  _125
REMARK   50  A    between atoms: _125  and  _126
REMARK   51  A    between atoms: _125  and  _128
REMARK   52  A    between atoms: _128  and  _129
REMARK   53  A    between atoms: _129  and  _130
REMARK   54  A    between atoms: _133  and  _135
REMARK   55  A    between atoms: _135  and  _136
REMARK   56  A    between atoms: _135  and  _138
REMARK   57  A    between atoms: _138  and  _139
REMARK   58  A    between atoms: _140  and  MG_451
REMARK   59  A    between atoms: _144  and  _146
REMARK   60  A    between atoms: _146  and  _147
REMARK   61  A    between atoms: _146  and  _149
REMARK   62  A    between atoms: _149  and  _150
REMARK   63  A    between atoms: _150  and  _151
REMARK   64  A    between atoms: _153  and  _155
REMARK   65  A    between atoms: _155  and  _156
REMARK   66  A    between atoms: _155  and  _158
REMARK   67  A    between atoms: _158  and  _159
REMARK   68  A    between atoms: _164  and  _166
REMARK   69  A    between atoms: _166  and  _167
REMARK   70  A    between atoms: _166  and  _169
REMARK   71  A    between atoms: _169  and  _170
REMARK   72  A    between atoms: _170  and  _171
REMARK   73  A    between atoms: _174  and  _176
REMARK   74  A    between atoms: _176  and  _177
REMARK   75  A    between atoms: _176  and  _179
REMARK   76  A    between atoms: _179  and  _180
REMARK   77  A    between atoms: _180  and  _181
REMARK   78  A    between atoms: _184  and  _186
REMARK   79  A    between atoms: _186  and  _187
REMARK   80  A    between atoms: _186  and  _189
REMARK   81  A    between atoms: _189  and  _190
REMARK   82  A    between atoms: _190  and  _191
REMARK   83  A    between atoms: _193  and  _195
REMARK   84  A    between atoms: _195  and  _196
REMARK   85  A    between atoms: _195  and  _198
REMARK   86  A    between atoms: _198  and  _199
REMARK   87  A    between atoms: _204  and  _205
REMARK   88  A    between atoms: _207  and  _209
REMARK   89  A    between atoms: _209  and  _210
REMARK   90  A    between atoms: _209  and  _212
REMARK   91  A    between atoms: _212  and  _213
REMARK   92  A    between atoms: _213  and  _214
REMARK   93  A    between atoms: _214  and  _215
REMARK   94  A    between atoms: _215  and  _216
REMARK   95  A    between atoms: _220  and  _222
REMARK   96  A    between atoms: _222  and  _223
REMARK   97  A    between atoms: _222  and  _225
REMARK   98  A    between atoms: _227  and  _229
REMARK   99  A    between atoms: _229  and  _230
REMARK  100  A    between atoms: _229  and  _232
REMARK  101  A    between atoms: _232  and  _233
REMARK  102  A    between atoms: _233  and  _234
REMARK  103  A    between atoms: _237  and  _239
REMARK  104  A    between atoms: _239  and  _240
REMARK  105  A    between atoms: _239  and  _242
REMARK  106  A    between atoms: _242  and  _243
REMARK  107  A    between atoms: _248  and  _250
REMARK  108  A    between atoms: _250  and  _251
REMARK  109  A    between atoms: _254  and  _256
REMARK  110  A    between atoms: _256  and  _257
REMARK  111  A    between atoms: _256  and  _259
REMARK  112  A    between atoms: _259  and  _260
REMARK  113  A    between atoms: _260  and  _261
REMARK  114  A    between atoms: _263  and  _265
REMARK  115  A    between atoms: _265  and  _266
REMARK  116  A    between atoms: _265  and  _268
REMARK  117  A    between atoms: _268  and  _269
REMARK  118  A    between atoms: _279  and  _281
REMARK  119  A    between atoms: _281  and  _282
REMARK  120  A    between atoms: _281  and  _284
REMARK  121  A    between atoms: _284  and  _285
REMARK  122  A    between atoms: _288  and  _290
REMARK  123  A    between atoms: _290  and  _291
REMARK  124  A    between atoms: _290  and  _293
REMARK  125  A    between atoms: _293  and  _294
REMARK  126  A    between atoms: _294  and  _295
REMARK  127  A    between atoms: _300  and  _302
REMARK  128  A    between atoms: _302  and  _303
REMARK  129  A    between atoms: _302  and  _305
REMARK  130  A    between atoms: _305  and  _306
REMARK  131  A    between atoms: _309  and  _311
REMARK  132  A    between atoms: _311  and  _312
REMARK  133  A    between atoms: _311  and  _314
REMARK  134  A    between atoms: _314  and  _315
REMARK  135  A    between atoms: _315  and  _316
REMARK  136  A    between atoms: _321  and  _323
REMARK  137  A    between atoms: _323  and  _324
REMARK  138  A    between atoms: _323  and  _326
REMARK  139  A    between atoms: _326  and  _327
REMARK  140  A    between atoms: _333  and  _335
REMARK  141  A    between atoms: _335  and  _336
REMARK  142  A    between atoms: _335  and  _338
REMARK  143  A    between atoms: _340  and  _342
REMARK  144  A    between atoms: _342  and  _343
REMARK  145  A    between atoms: _342  and  _345
REMARK  146  A    between atoms: _345  and  _346
REMARK  147  A    between atoms: _346  and  _347
REMARK  148  A    between atoms: _349  and  _351
REMARK  149  A    between atoms: _351  and  _352
REMARK  150  A    between atoms: _351  and  _354
REMARK  151  A    between atoms: _354  and  _355
REMARK  152  A    between atoms: _360  and  _362
REMARK  153  A    between atoms: _362  and  _363
REMARK  154  A    between atoms: _365  and  _367
REMARK  155  A    between atoms: _367  and  _368
REMARK  156  A    between atoms: _367  and  _370
REMARK  157  A    between atoms: _373  and  _375
REMARK  158  A    between atoms: _375  and  _376
REMARK  159  A    between atoms: _375  and  _378
REMARK  160  A    between atoms: _378  and  _379
REMARK  161  A    between atoms: _379  and  _380
REMARK  162  A    between atoms: _383  and  _385
REMARK  163  A    between atoms: _385  and  _386
REMARK  164  A    between atoms: _385  and  _388
REMARK  165  A    between atoms: _388  and  _389
REMARK  166  A    between atoms: _392  and  _394
REMARK  167  A    between atoms: _394  and  _395
REMARK  168  A    between atoms: _394  and  _397
REMARK  169  A    between atoms: _397  and  _398
REMARK  170  A    between atoms: _400  and  _402
REMARK  171  A    between atoms: _402  and  _403
REMARK  172  A    between atoms: _402  and  _405
REMARK  173  A    between atoms: _405  and  _406
REMARK  174  A    between atoms: _416  and  _418
REMARK  175  A    between atoms: _418  and  _419
REMARK  176  A    between atoms: _418  and  _421
REMARK  177  A    between atoms: _421  and  _422
REMARK  178  A    between atoms: _424  and  _426
REMARK  179  A    between atoms: _426  and  _427
REMARK  180  A    between atoms: _426  and  _429
REMARK  181  A    between atoms: _429  and  _430
REMARK  182  A    between atoms: _430  and  _431
REMARK  183  A    between atoms: _434  and  _436
REMARK  184  A    between atoms: _436  and  _437
REMARK  185  A    between atoms: _436  and  _439
REMARK  186  A    between atoms: _439  and  _440
REMARK  187  A    between atoms: _440  and  _441
REMARK  188  A    between atoms: _441  and  _442
REMARK                            x       y       z     vdW  Elec       q    Type
REMARK                         _______ _______ _______ _____ _____    ______ ____
ROOT
ATOM      1  CG  LYS A   1     -15.931 -17.709 -22.072  0.00  0.00    -0.000 C 
ENDROOT
BRANCH   1   2
ATOM      2  CB  LYS A   1     -16.166 -16.245 -22.391  0.00  0.00    +0.025 C 
BRANCH   2   3
ATOM      3  CA  LYS A   1     -16.235 -15.303 -21.176  0.00  0.00    +0.133 C 
BRANCH   3   4
ATOM      4  N   LYS A   1     -17.333 -15.628 -20.281  0.00  0.00    -0.239 NA
ATOM      5  H   LYS A   1     -18.275 -15.818 -20.678  0.00  0.00    +0.142 HD
ENDBRANCH   3   4
BRANCH   3   6
ATOM      6  C   LYS A   1     -16.433 -13.866 -21.635  0.00  0.00    +0.224 C 
ATOM      7  O   LYS A   1     -17.165 -13.587 -22.594  0.00  0.00    -0.287 OA
ENDBRANCH   3   6
ENDBRANCH   2   3
ENDBRANCH   1   2
BRANCH   1   8
ATOM      8  CD  LYS A   1     -15.748 -18.503 -23.361  0.00  0.00    -0.024 C 
BRANCH   8   9
ATOM      9  CE  LYS A   1     -15.918 -19.994 -23.141  0.00  0.00    -0.086 C 
BRANCH   9  10
ATOM     10  NZ  LYS A   1     -14.886 -20.551 -22.231  0.00  0.00    +0.380 N 
ATOM     11  HZ1 LYS A   1     -14.950 -20.079 -21.306  0.00  0.00    -0.089 HD
ATOM     12  HZ2 LYS A   1     -15.045 -21.572 -22.112  0.00  0.00    -0.089 HD
ATOM     13  HZ3 LYS A   1     -13.943 -20.391 -22.639  0.00  0.00    -0.089 HD
ENDBRANCH   9  10
ENDBRANCH   8   9
ENDBRANCH   1   8
TORSDOF 7
REMARK  Name = ../refined-set-2016/3t08/3t08_pocket.pdb
REMARK  188 active torsions:
REMARK  status: ('A' for Active; 'I' for Inactive)
REMARK    1  A    between atoms: _1  and  _3
REMARK    2  A    between atoms: _3  and  _4
REMARK    3  A    between atoms: _3  and  _6
REMARK    4  A    between atoms: _6  and  _7
REMARK    5  A    between atoms: _12  and  _13
REMARK    6  A    between atoms: _15  and  _17
REMARK    7  A    between atoms: _17  and  _18
REMARK    8  A    between atoms: _17  and  _20
REMARK    9  A    between atoms: _20  and  _21
REMARK   10  A    between atoms: _26  and  _28
REMARK   11  A    between atoms: _28  and  _29
REMARK   12  A    between atoms: _28  and  _31
REMARK   13  A    between atoms: _34  and  _36
REMARK   14  A    between atoms: _36  and  _37
REMARK   15  A    between atoms: _36  and  _39
REMARK   16  A    between atoms: _39  and  _40
REMARK   17  A    between atoms: _43  and  _45
REMARK   18  A    between atoms: _45  and  _46
REMARK   19  A    between atoms: _45  and  _48
REMARK   20  A    between atoms: _48  and  _49
REMARK   21  A    between atoms: _49  and  _50
REMARK   22  A    between atoms: _55  and  _57
REMARK   23  A    between atoms: _57  and  _58
REMARK   24  A    between atoms: _57  and  _60
REMARK   25  A    between atoms: _60  and  _61
REMARK   26  A    between atoms: _64  and  _66
REMARK   27  A    between atoms: _66  and  _67
REMARK   28  A    between atoms: _66  and  _69
REMARK   29  A    between atoms: _69  and  _70
REMARK   30  A    between atoms: _70  and  _71
REMARK   31  A    between atoms: _73  and  _75
REMARK   32  A    between atoms: _75  and  _76
REMARK   33  A    between atoms: _75  and  _78
REMARK   34  A    between atoms: _78  and  _79
REMARK   35  A    between atoms: _84  and  _86
REMARK   36  A    between atoms: _86  and  _87
REMARK   37  A    between atoms: _86  and  _89
REMARK   38  A    between atoms: _89  and  _90
REMARK   39  A    between atoms: _95  and  _97
REMARK   40  A    between atoms: _97  and  _98
REMARK   41  A    between atoms: _97  and  _100
REMARK   42  A    between atoms: _100  and  _101
REMARK   43  A    between atoms: _101  and  _102
REMARK   44  A    between atoms: _102  and  _103
REMARK   45  A    between atoms: _112  and  _114
REMARK   46  A    between atoms: _114  and  _115
REMARK   47  A    between atoms: _114  and  _117
REMARK   48  A    between atoms: _117  and  _118
REMARK   49  A    between atoms: _123  and  _125
REMARK   50  A    between atoms: _125  and  _126
REMARK   51  A    between atoms: _125  and  _128
REMARK   52  A    between atoms: _128  and  _129
REMARK   53  A    between atoms: _129  and  _130
REMARK   54  A    between atoms: _133  and  _135
REMARK   55  A    between atoms: _135  and  _136
REMARK   56  A    between atoms: _135  and  _138
REMARK   57  A    between atoms: _138  and  _139
REMARK   58  A    between atoms: _140  and  MG_451
REMARK   59  A    between atoms: _144  and  _146
REMARK   60  A    between atoms: _146  and  _147
REMARK   61  A    between atoms: _146  and  _149
REMARK   62  A    between atoms: _149  and  _150
REMARK   63  A    between atoms: _150  and  _151
REMARK   64  A    between atoms: _153  and  _155
REMARK   65  A    between atoms: _155  and  _156
REMARK   66  A    between atoms: _155  and  _158
REMARK   67  A    between atoms: _158  and  _159
REMARK   68  A    between atoms: _164  and  _166
REMARK   69  A    between atoms: _166  and  _167
REMARK   70  A    between atoms: _166  and  _169
REMARK   71  A    between atoms: _169  and  _170
REMARK   72  A    between atoms: _170  and  _171
REMARK   73  A    between atoms: _174  and  _176
REMARK   74  A    between atoms: _176  and  _177
REMARK   75  A    between atoms: _176  and  _179
REMARK   76  A    between atoms: _179  and  _180
REMARK   77  A    between atoms: _180  and  _181
REMARK   78  A    between atoms: _184  and  _186
REMARK   79  A    between atoms: _186  and  _187
REMARK   80  A    between atoms: _186  and  _189
REMARK   81  A    between atoms: _189  and  _190
REMARK   82  A    between atoms: _190  and  _191
REMARK   83  A    between atoms: _193  and  _195
REMARK   84  A    between atoms: _195  and  _196
REMARK   85  A    between atoms: _195  and  _198
REMARK   86  A    between atoms: _198  and  _199
REMARK   87  A    between atoms: _204  and  _205
REMARK   88  A    between atoms: _207  and  _209
REMARK   89  A    between atoms: _209  and  _210
REMARK   90  A    between atoms: _209  and  _212
REMARK   91  A    between atoms: _212  and  _213
REMARK   92  A    between atoms: _213  and  _214
REMARK   93  A    between atoms: _214  and  _215
REMARK   94  A    between atoms: _215  and  _216
REMARK   95  A    between atoms: _220  and  _222
REMARK   96  A    between atoms: _222  and  _223
REMARK   97  A    between atoms: _222  and  _225
REMARK   98  A    between atoms: _227  and  _229
REMARK   99  A    between atoms: _229  and  _230
REMARK  100  A    between atoms: _229  and  _232
REMARK  101  A    between atoms: _232  and  _233
REMARK  102  A    between atoms: _233  and  _234
REMARK  103  A    between atoms: _237  and  _239
REMARK  104  A    between atoms: _239  and  _240
REMARK  105  A    between atoms: _239  and  _242
REMARK  106  A    between atoms: _242  and  _243
REMARK  107  A    between atoms: _248  and  _250
REMARK  108  A    between atoms: _250  and  _251
REMARK  109  A    between atoms: _254  and  _256
REMARK  110  A    between atoms: _256  and  _257
REMARK  111  A    between atoms: _256  and  _259
REMARK  112  A    between atoms: _259  and  _260
REMARK  113  A    between atoms: _260  and  _261
REMARK  114  A    between atoms: _263  and  _265
REMARK  115  A    between atoms: _265  and  _266
REMARK  116  A    between atoms: _265  and  _268
REMARK  117  A    between atoms: _268  and  _269
REMARK  118  A    between atoms: _279  and  _281
REMARK  119  A    between atoms: _281  and  _282
REMARK  120  A    between atoms: _281  and  _284
REMARK  121  A    between atoms: _284  and  _285
REMARK  122  A    between atoms: _288  and  _290
REMARK  123  A    between atoms: _290  and  _291
REMARK  124  A    between atoms: _290  and  _293
REMARK  125  A    between atoms: _293  and  _294
REMARK  126  A    between atoms: _294  and  _295
REMARK  127  A    between atoms: _300  and  _302
REMARK  128  A    between atoms: _302  and  _303
REMARK  129  A    between atoms: _302  and  _305
REMARK  130  A    between atoms: _305  and  _306
REMARK  131  A    between atoms: _309  and  _311
REMARK  132  A    between atoms: _311  and  _312
REMARK  133  A    between atoms: _311  and  _314
REMARK  134  A    between atoms: _314  and  _315
REMARK  135  A    between atoms: _315  and  _316
REMARK  136  A    between atoms: _321  and  _323
REMARK  137  A    between atoms: _323  and  _324
REMARK  138  A    between atoms: _323  and  _326
REMARK  139  A    between atoms: _326  and  _327
REMARK  140  A    between atoms: _333  and  _335
REMARK  141  A    between atoms: _335  and  _336
REMARK  142  A    between atoms: _335  and  _338
REMARK  143  A    between atoms: _340  and  _342
REMARK  144  A    between atoms: _342  and  _343
REMARK  145  A    between atoms: _342  and  _345
REMARK  146  A    between atoms: _345  and  _346
REMARK  147  A    between atoms: _346  and  _347
REMARK  148  A    between atoms: _349  and  _351
REMARK  149  A    between atoms: _351  and  _352
REMARK  150  A    between atoms: _351  and  _354
REMARK  151  A    between atoms: _354  and  _355
REMARK  152  A    between atoms: _360  and  _362
REMARK  153  A    between atoms: _362  and  _363
REMARK  154  A    between atoms: _365  and  _367
REMARK  155  A    between atoms: _367  and  _368
REMARK  156  A    between atoms: _367  and  _370
REMARK  157  A    between atoms: _373  and  _375
REMARK  158  A    between atoms: _375  and  _376
REMARK  159  A    between atoms: _375  and  _378
REMARK  160  A    between atoms: _378  and  _379
REMARK  161  A    between atoms: _379  and  _380
REMARK  162  A    between atoms: _383  and  _385
REMARK  163  A    between atoms: _385  and  _386
REMARK  164  A    between atoms: _385  and  _388
REMARK  165  A    between atoms: _388  and  _389
REMARK  166  A    between atoms: _392  and  _394
REMARK  167  A    between atoms: _394  and  _395
REMARK  168  A    between atoms: _394  and  _397
REMARK  169  A    between atoms: _397  and  _398
REMARK  170  A    between atoms: _400  and  _402
REMARK  171  A    between atoms: _402  and  _403
REMARK  172  A    between atoms: _402  and  _405
REMARK  173  A    between atoms: _405  and  _406
REMARK  174  A    between atoms: _416  and  _418
REMARK  175  A    between atoms: _418  and  _419
REMARK  176  A    between atoms: _418  and  _421
REMARK  177  A    between atoms: _421  and  _422
REMARK  178  A    between atoms: _424  and  _426
REMARK  179  A    between atoms: _426  and  _427
REMARK  180  A    between atoms: _426  and  _429
REMARK  181  A    between atoms: _429  and  _430
REMARK  182  A    between atoms: _430  and  _431
REMARK  183  A    between atoms: _434  and  _436
REMARK  184  A    between atoms: _436  and  _437
REMARK  185  A    between atoms: _436  and  _439
REMARK  186  A    between atoms: _439  and  _440
REMARK  187  A    between atoms: _440  and  _441
REMARK  188  A    between atoms: _441  and  _442
REMARK                            x       y       z     vdW  Elec       q    Type
REMARK                         _______ _______ _______ _____ _____    ______ ____
ROOT
ATOM      1  C   CYS A   1      -5.438 -21.165 -25.203  0.00  0.00    +0.239 C 
ATOM      2  N   GLU A   2      -6.679 -20.852 -25.592  0.00  0.00    -0.298 N 
ATOM      3  H   GLU A   2      -7.247 -20.232 -24.980  0.00  0.00    +0.150 HD
ATOM      4  O   CYS A   1      -4.721 -21.990 -25.781  0.00  0.00    -0.274 OA
ENDROOT
BRANCH   1   5
ATOM      5  CA  CYS A   1      -4.914 -20.416 -23.982  0.00  0.00    +0.156 C 
BRANCH   5   6
ATOM      6  N   CYS A   1      -5.522 -19.085 -23.924  0.00  0.00    -0.237 NA
ATOM      7  H   CYS A   1      -6.253 -18.876 -23.215  0.00  0.00    +0.142 HD
ENDBRANCH   5   6
BRANCH   5   8
ATOM      8  CB  CYS A   1      -5.093 -21.223 -22.682  0.00  0.00    +0.095 C 
ATOM      9  SG  CYS A   1      -6.756 -21.867 -22.404  0.00  0.00    -0.080 S 
ENDBRANCH   5   8
ENDBRANCH   1   5
BRANCH   2  10
ATOM     10  CA  GLU A   2      -7.279 -21.341 -26.841  0.00  0.00    +0.137 C 
BRANCH  10  11
ATOM     11  C   GLU A   2      -8.125 -20.260 -27.506  0.00  0.00    +0.227 C 
ATOM     12  O   GLU A   2      -8.863 -19.542 -26.835  0.00  0.00    -0.286 OA
ENDBRANCH  10  11
BRANCH  10  13
ATOM     13  CB  GLU A   2      -8.127 -22.591 -26.592  0.00  0.00    +0.039 C 
BRANCH  13  14
ATOM     14  CG  GLU A   2      -7.319 -23.769 -26.085  0.00  0.00    +0.116 C 
BRANCH  14  15
ATOM     15  CD  GLU A   2      -8.163 -24.914 -25.591  0.00  0.00    +0.365 C 
ATOM     16  OE2 GLU A   2      -7.686 -25.656 -24.711  0.00  0.00    -0.246 OA
ATOM     17  OE1 GLU A   2      -9.294 -25.086 -26.091  0.00  0.00    -0.246 OA
ENDBRANCH  14  15
ENDBRANCH  13  14
ENDBRANCH  10  13
ENDBRANCH   2  10
TORSDOF 8
REMARK  Name = ../refined-set-2016/3t08/3t08_pocket.pdb
REMARK  188 active torsions:
REMARK  status: ('A' for Active; 'I' for Inactive)
REMARK    1  A    between atoms: _1  and  _3
REMARK    2  A    between atoms: _3  and  _4
REMARK    3  A    between atoms: _3  and  _6
REMARK    4  A    between atoms: _6  and  _7
REMARK    5  A    between atoms: _12  and  _13
REMARK    6  A    between atoms: _15  and  _17
REMARK    7  A    between atoms: _17  and  _18
REMARK    8  A    between atoms: _17  and  _20
REMARK    9  A    between atoms: _20  and  _21
REMARK   10  A    between atoms: _26  and  _28
REMARK   11  A    between atoms: _28  and  _29
REMARK   12  A    between atoms: _28  and  _31
REMARK   13  A    between atoms: _34  and  _36
REMARK   14  A    between atoms: _36  and  _37
REMARK   15  A    between atoms: _36  and  _39
REMARK   16  A    between atoms: _39  and  _40
REMARK   17  A    between atoms: _43  and  _45
REMARK   18  A    between atoms: _45  and  _46
REMARK   19  A    between atoms: _45  and  _48
REMARK   20  A    between atoms: _48  and  _49
REMARK   21  A    between atoms: _49  and  _50
REMARK   22  A    between atoms: _55  and  _57
REMARK   23  A    between atoms: _57  and  _58
REMARK   24  A    between atoms: _57  and  _60
REMARK   25  A    between atoms: _60  and  _61
REMARK   26  A    between atoms: _64  and  _66
REMARK   27  A    between atoms: _66  and  _67
REMARK   28  A    between atoms: _66  and  _69
REMARK   29  A    between atoms: _69  and  _70
REMARK   30  A    between atoms: _70  and  _71
REMARK   31  A    between atoms: _73  and  _75
REMARK   32  A    between atoms: _75  and  _76
REMARK   33  A    between atoms: _75  and  _78
REMARK   34  A    between atoms: _78  and  _79
REMARK   35  A    between atoms: _84  and  _86
REMARK   36  A    between atoms: _86  and  _87
REMARK   37  A    between atoms: _86  and  _89
REMARK   38  A    between atoms: _89  and  _90
REMARK   39  A    between atoms: _95  and  _97
REMARK   40  A    between atoms: _97  and  _98
REMARK   41  A    between atoms: _97  and  _100
REMARK   42  A    between atoms: _100  and  _101
REMARK   43  A    between atoms: _101  and  _102
REMARK   44  A    between atoms: _102  and  _103
REMARK   45  A    between atoms: _112  and  _114
REMARK   46  A    between atoms: _114  and  _115
REMARK   47  A    between atoms: _114  and  _117
REMARK   48  A    between atoms: _117  and  _118
REMARK   49  A    between atoms: _123  and  _125
REMARK   50  A    between atoms: _125  and  _126
REMARK   51  A    between atoms: _125  and  _128
REMARK   52  A    between atoms: _128  and  _129
REMARK   53  A    between atoms: _129  and  _130
REMARK   54  A    between atoms: _133  and  _135
REMARK   55  A    between atoms: _135  and  _136
REMARK   56  A    between atoms: _135  and  _138
REMARK   57  A    between atoms: _138  and  _139
REMARK   58  A    between atoms: _140  and  MG_451
REMARK   59  A    between atoms: _144  and  _146
REMARK   60  A    between atoms: _146  and  _147
REMARK   61  A    between atoms: _146  and  _149
REMARK   62  A    between atoms: _149  and  _150
REMARK   63  A    between atoms: _150  and  _151
REMARK   64  A    between atoms: _153  and  _155
REMARK   65  A    between atoms: _155  and  _156
REMARK   66  A    between atoms: _155  and  _158
REMARK   67  A    between atoms: _158  and  _159
REMARK   68  A    between atoms: _164  and  _166
REMARK   69  A    between atoms: _166  and  _167
REMARK   70  A    between atoms: _166  and  _169
REMARK   71  A    between atoms: _169  and  _170
REMARK   72  A    between atoms: _170  and  _171
REMARK   73  A    between atoms: _174  and  _176
REMARK   74  A    between atoms: _176  and  _177
REMARK   75  A    between atoms: _176  and  _179
REMARK   76  A    between atoms: _179  and  _180
REMARK   77  A    between atoms: _180  and  _181
REMARK   78  A    between atoms: _184  and  _186
REMARK   79  A    between atoms: _186  and  _187
REMARK   80  A    between atoms: _186  and  _189
REMARK   81  A    between atoms: _189  and  _190
REMARK   82  A    between atoms: _190  and  _191
REMARK   83  A    between atoms: _193  and  _195
REMARK   84  A    between atoms: _195  and  _196
REMARK   85  A    between atoms: _195  and  _198
REMARK   86  A    between atoms: _198  and  _199
REMARK   87  A    between atoms: _204  and  _205
REMARK   88  A    between atoms: _207  and  _209
REMARK   89  A    between atoms: _209  and  _210
REMARK   90  A    between atoms: _209  and  _212
REMARK   91  A    between atoms: _212  and  _213
REMARK   92  A    between atoms: _213  and  _214
REMARK   93  A    between atoms: _214  and  _215
REMARK   94  A    between atoms: _215  and  _216
REMARK   95  A    between atoms: _220  and  _222
REMARK   96  A    between atoms: _222  and  _223
REMARK   97  A    between atoms: _222  and  _225
REMARK   98  A    between atoms: _227  and  _229
REMARK   99  A    between atoms: _229  and  _230
REMARK  100  A    between atoms: _229  and  _232
REMARK  101  A    between atoms: _232  and  _233
REMARK  102  A    between atoms: _233  and  _234
REMARK  103  A    between atoms: _237  and  _239
REMARK  104  A    between atoms: _239  and  _240
REMARK  105  A    between atoms: _239  and  _242
REMARK  106  A    between atoms: _242  and  _243
REMARK  107  A    between atoms: _248  and  _250
REMARK  108  A    between atoms: _250  and  _251
REMARK  109  A    between atoms: _254  and  _256
REMARK  110  A    between atoms: _256  and  _257
REMARK  111  A    between atoms: _256  and  _259
REMARK  112  A    between atoms: _259  and  _260
REMARK  113  A    between atoms: _260  and  _261
REMARK  114  A    between atoms: _263  and  _265
REMARK  115  A    between atoms: _265  and  _266
REMARK  116  A    between atoms: _265  and  _268
REMARK  117  A    between atoms: _268  and  _269
REMARK  118  A    between atoms: _279  and  _281
REMARK  119  A    between atoms: _281  and  _282
REMARK  120  A    between atoms: _281  and  _284
REMARK  121  A    between atoms: _284  and  _285
REMARK  122  A    between atoms: _288  and  _290
REMARK  123  A    between atoms: _290  and  _291
REMARK  124  A    between atoms: _290  and  _293
REMARK  125  A    between atoms: _293  and  _294
REMARK  126  A    between atoms: _294  and  _295
REMARK  127  A    between atoms: _300  and  _302
REMARK  128  A    between atoms: _302  and  _303
REMARK  129  A    between atoms: _302  and  _305
REMARK  130  A    between atoms: _305  and  _306
REMARK  131  A    between atoms: _309  and  _311
REMARK  132  A    between atoms: _311  and  _312
REMARK  133  A    between atoms: _311  and  _314
REMARK  134  A    between atoms: _314  and  _315
REMARK  135  A    between atoms: _315  and  _316
REMARK  136  A    between atoms: _321  and  _323
REMARK  137  A    between atoms: _323  and  _324
REMARK  138  A    between atoms: _323  and  _326
REMARK  139  A    between atoms: _326  and  _327
REMARK  140  A    between atoms: _333  and  _335
REMARK  141  A    between atoms: _335  and  _336
REMARK  142  A    between atoms: _335  and  _338
REMARK  143  A    between atoms: _340  and  _342
REMARK  144  A    between atoms: _342  and  _343
REMARK  145  A    between atoms: _342  and  _345
REMARK  146  A    between atoms: _345  and  _346
REMARK  147  A    between atoms: _346  and  _347
REMARK  148  A    between atoms: _349  and  _351
REMARK  149  A    between atoms: _351  and  _352
REMARK  150  A    between atoms: _351  and  _354
REMARK  151  A    between atoms: _354  and  _355
REMARK  152  A    between atoms: _360  and  _362
REMARK  153  A    between atoms: _362  and  _363
REMARK  154  A    between atoms: _365  and  _367
REMARK  155  A    between atoms: _367  and  _368
REMARK  156  A    between atoms: _367  and  _370
REMARK  157  A    between atoms: _373  and  _375
REMARK  158  A    between atoms: _375  and  _376
REMARK  159  A    between atoms: _375  and  _378
REMARK  160  A    between atoms: _378  and  _379
REMARK  161  A    between atoms: _379  and  _380
REMARK  162  A    between atoms: _383  and  _385
REMARK  163  A    between atoms: _385  and  _386
REMARK  164  A    between atoms: _385  and  _388
REMARK  165  A    between atoms: _388  and  _389
REMARK  166  A    between atoms: _392  and  _394
REMARK  167  A    between atoms: _394  and  _395
REMARK  168  A    between atoms: _394  and  _397
REMARK  169  A    between atoms: _397  and  _398
REMARK  170  A    between atoms: _400  and  _402
REMARK  171  A    between atoms: _402  and  _403
REMARK  172  A    between atoms: _402  and  _405
REMARK  173  A    between atoms: _405  and  _406
REMARK  174  A    between atoms: _416  and  _418
REMARK  175  A    between atoms: _418  and  _419
REMARK  176  A    between atoms: _418  and  _421
REMARK  177  A    between atoms: _421  and  _422
REMARK  178  A    between atoms: _424  and  _426
REMARK  179  A    between atoms: _426  and  _427
REMARK  180  A    between atoms: _426  and  _429
REMARK  181  A    between atoms: _429  and  _430
REMARK  182  A    between atoms: _430  and  _431
REMARK  183  A    between atoms: _434  and  _436
REMARK  184  A    between atoms: _436  and  _437
REMARK  185  A    between atoms: _436  and  _439
REMARK  186  A    between atoms: _439  and  _440
REMARK  187  A    between atoms: _440  and  _441
REMARK  188  A    between atoms: _441  and  _442
REMARK                            x       y       z     vdW  Elec       q    Type
REMARK                         _______ _______ _______ _____ _____    ______ ____
ROOT
ATOM      1  C   HIS A   1     -11.147 -23.129 -34.913  0.00  0.00    +0.239 C 
ATOM      2  N   ALA A   2     -10.085 -23.776 -35.384  0.00  0.00    -0.297 N 
ATOM      3  H   ALA A   2      -9.413 -24.194 -34.709  0.00  0.00    +0.150 HD
ATOM      4  O   HIS A   1     -12.090 -22.793 -35.621  0.00  0.00    -0.274 OA
ENDROOT
BRANCH   2   5
ATOM      5  CA  ALA A   2      -9.827 -23.921 -36.814  0.00  0.00    +0.149 C 
ATOM      6  CB  ALA A   2      -8.327 -23.847 -37.090  0.00  0.00    +0.031 C 
BRANCH   5   7
ATOM      7  C   ALA A   2     -10.425 -25.206 -37.385  0.00  0.00    +0.241 C 
ATOM      8  N   MET A   3     -11.651 -25.493 -36.971  0.00  0.00    -0.298 N 
ATOM      9  H   MET A   3     -12.120 -24.838 -36.313  0.00  0.00    +0.150 HD
ATOM     10  O   ALA A   2      -9.796 -25.906 -38.182  0.00  0.00    -0.273 OA
BRANCH   8  11
ATOM     11  CA  MET A   3     -12.369 -26.683 -37.396  0.00  0.00    +0.138 C 
BRANCH  11  12
ATOM     12  C   MET A   3     -12.970 -26.526 -38.791  0.00  0.00    +0.227 C 
ATOM     13  O   MET A   3     -13.939 -25.775 -38.996  0.00  0.00    -0.286 OA
ENDBRANCH  11  12
BRANCH  11  14
ATOM     14  CB  MET A   3     -13.464 -27.004 -36.393  0.00  0.00    +0.039 C 
BRANCH  14  15
ATOM     15  CG  MET A   3     -14.233 -28.254 -36.712  0.00  0.00    +0.060 C 
BRANCH  15  16
ATOM     16  SD  MET A   3     -15.461 -28.530 -35.448  0.00  0.00    -0.139 S 
ATOM     17  CE  MET A   3     -15.954 -30.204 -35.853  0.00  0.00    +0.069 C 
ENDBRANCH  15  16
ENDBRANCH  14  15
ENDBRANCH  11  14
ENDBRANCH   8  11
ENDBRANCH   5   7
ENDBRANCH   2   5
BRANCH   1  18
ATOM     18  CA  HIS A   1     -11.145 -22.815 -33.403  0.00  0.00    +0.151 C 
BRANCH  18  19
ATOM     19  N   HIS A   1     -10.959 -21.384 -33.179  0.00  0.00    -0.238 NA
ATOM     20  H   HIS A   1     -11.706 -20.874 -32.666  0.00  0.00    +0.142 HD
ENDBRANCH  18  19
BRANCH  18  21
ATOM     21  CB  HIS A   1     -12.460 -23.232 -32.740  0.00  0.00    +0.074 C 
BRANCH  21  22
ATOM     22  CG  HIS A   1     -12.582 -24.700 -32.480  0.00  0.00    +0.082 A 
ATOM     23  CD2 HIS A   1     -12.108 -25.471 -31.475  0.00  0.00    +0.115 A 
ATOM     24  NE2 HIS A   1     -12.531 -26.755 -31.716  0.00  0.00    -0.221 NA
ATOM     25  CE1 HIS A   1     -13.251 -26.769 -32.822  0.00  0.00    +0.199 A 
ATOM     26  ND1 HIS A   1     -13.293 -25.541 -33.306  0.00  0.00    -0.227 NA
ENDBRANCH  21  22
ENDBRANCH  18  21
ENDBRANCH   1  18
TORSDOF 11
REMARK  Name = ../refined-set-2016/3t08/3t08_pocket.pdb
REMARK  188 active torsions:
REMARK  status: ('A' for Active; 'I' for Inactive)
REMARK    1  A    between atoms: _1  and  _3
REMARK    2  A    between atoms: _3  and  _4
REMARK    3  A    between atoms: _3  and  _6
REMARK    4  A    between atoms: _6  and  _7
REMARK    5  A    between atoms: _12  and  _13
REMARK    6  A    between atoms: _15  and  _17
REMARK    7  A    between atoms: _17  and  _18
REMARK    8  A    between atoms: _17  and  _20
REMARK    9  A    between atoms: _20  and  _21
REMARK   10  A    between atoms: _26  and  _28
REMARK   11  A    between atoms: _28  and  _29
REMARK   12  A    between atoms: _28  and  _31
REMARK   13  A    between atoms: _34  and  _36
REMARK   14  A    between atoms: _36  and  _37
REMARK   15  A    between atoms: _36  and  _39
REMARK   16  A    between atoms: _39  and  _40
REMARK   17  A    between atoms: _43  and  _45
REMARK   18  A    between atoms: _45  and  _46
REMARK   19  A    between atoms: _45  and  _48
REMARK   20  A    between atoms: _48  and  _49
REMARK   21  A    between atoms: _49  and  _50
REMARK   22  A    between atoms: _55  and  _57
REMARK   23  A    between atoms: _57  and  _58
REMARK   24  A    between atoms: _57  and  _60
REMARK   25  A    between atoms: _60  and  _61
REMARK   26  A    between atoms: _64  and  _66
REMARK   27  A    between atoms: _66  and  _67
REMARK   28  A    between atoms: _66  and  _69
REMARK   29  A    between atoms: _69  and  _70
REMARK   30  A    between atoms: _70  and  _71
REMARK   31  A    between atoms: _73  and  _75
REMARK   32  A    between atoms: _75  and  _76
REMARK   33  A    between atoms: _75  and  _78
REMARK   34  A    between atoms: _78  and  _79
REMARK   35  A    between atoms: _84  and  _86
REMARK   36  A    between atoms: _86  and  _87
REMARK   37  A    between atoms: _86  and  _89
REMARK   38  A    between atoms: _89  and  _90
REMARK   39  A    between atoms: _95  and  _97
REMARK   40  A    between atoms: _97  and  _98
REMARK   41  A    between atoms: _97  and  _100
REMARK   42  A    between atoms: _100  and  _101
REMARK   43  A    between atoms: _101  and  _102
REMARK   44  A    between atoms: _102  and  _103
REMARK   45  A    between atoms: _112  and  _114
REMARK   46  A    between atoms: _114  and  _115
REMARK   47  A    between atoms: _114  and  _117
REMARK   48  A    between atoms: _117  and  _118
REMARK   49  A    between atoms: _123  and  _125
REMARK   50  A    between atoms: _125  and  _126
REMARK   51  A    between atoms: _125  and  _128
REMARK   52  A    between atoms: _128  and  _129
REMARK   53  A    between atoms: _129  and  _130
REMARK   54  A    between atoms: _133  and  _135
REMARK   55  A    between atoms: _135  and  _136
REMARK   56  A    between atoms: _135  and  _138
REMARK   57  A    between atoms: _138  and  _139
REMARK   58  A    between atoms: _140  and  MG_451
REMARK   59  A    between atoms: _144  and  _146
REMARK   60  A    between atoms: _146  and  _147
REMARK   61  A    between atoms: _146  and  _149
REMARK   62  A    between atoms: _149  and  _150
REMARK   63  A    between atoms: _150  and  _151
REMARK   64  A    between atoms: _153  and  _155
REMARK   65  A    between atoms: _155  and  _156
REMARK   66  A    between atoms: _155  and  _158
REMARK   67  A    between atoms: _158  and  _159
REMARK   68  A    between atoms: _164  and  _166
REMARK   69  A    between atoms: _166  and  _167
REMARK   70  A    between atoms: _166  and  _169
REMARK   71  A    between atoms: _169  and  _170
REMARK   72  A    between atoms: _170  and  _171
REMARK   73  A    between atoms: _174  and  _176
REMARK   74  A    between atoms: _176  and  _177
REMARK   75  A    between atoms: _176  and  _179
REMARK   76  A    between atoms: _179  and  _180
REMARK   77  A    between atoms: _180  and  _181
REMARK   78  A    between atoms: _184  and  _186
REMARK   79  A    between atoms: _186  and  _187
REMARK   80  A    between atoms: _186  and  _189
REMARK   81  A    between atoms: _189  and  _190
REMARK   82  A    between atoms: _190  and  _191
REMARK   83  A    between atoms: _193  and  _195
REMARK   84  A    between atoms: _195  and  _196
REMARK   85  A    between atoms: _195  and  _198
REMARK   86  A    between atoms: _198  and  _199
REMARK   87  A    between atoms: _204  and  _205
REMARK   88  A    between atoms: _207  and  _209
REMARK   89  A    between atoms: _209  and  _210
REMARK   90  A    between atoms: _209  and  _212
REMARK   91  A    between atoms: _212  and  _213
REMARK   92  A    between atoms: _213  and  _214
REMARK   93  A    between atoms: _214  and  _215
REMARK   94  A    between atoms: _215  and  _216
REMARK   95  A    between atoms: _220  and  _222
REMARK   96  A    between atoms: _222  and  _223
REMARK   97  A    between atoms: _222  and  _225
REMARK   98  A    between atoms: _227  and  _229
REMARK   99  A    between atoms: _229  and  _230
REMARK  100  A    between atoms: _229  and  _232
REMARK  101  A    between atoms: _232  and  _233
REMARK  102  A    between atoms: _233  and  _234
REMARK  103  A    between atoms: _237  and  _239
REMARK  104  A    between atoms: _239  and  _240
REMARK  105  A    between atoms: _239  and  _242
REMARK  106  A    between atoms: _242  and  _243
REMARK  107  A    between atoms: _248  and  _250
REMARK  108  A    between atoms: _250  and  _251
REMARK  109  A    between atoms: _254  and  _256
REMARK  110  A    between atoms: _256  and  _257
REMARK  111  A    between atoms: _256  and  _259
REMARK  112  A    between atoms: _259  and  _260
REMARK  113  A    between atoms: _260  and  _261
REMARK  114  A    between atoms: _263  and  _265
REMARK  115  A    between atoms: _265  and  _266
REMARK  116  A    between atoms: _265  and  _268
REMARK  117  A    between atoms: _268  and  _269
REMARK  118  A    between atoms: _279  and  _281
REMARK  119  A    between atoms: _281  and  _282
REMARK  120  A    between atoms: _281  and  _284
REMARK  121  A    between atoms: _284  and  _285
REMARK  122  A    between atoms: _288  and  _290
REMARK  123  A    between atoms: _290  and  _291
REMARK  124  A    between atoms: _290  and  _293
REMARK  125  A    between atoms: _293  and  _294
REMARK  126  A    between atoms: _294  and  _295
REMARK  127  A    between atoms: _300  and  _302
REMARK  128  A    between atoms: _302  and  _303
REMARK  129  A    between atoms: _302  and  _305
REMARK  130  A    between atoms: _305  and  _306
REMARK  131  A    between atoms: _309  and  _311
REMARK  132  A    between atoms: _311  and  _312
REMARK  133  A    between atoms: _311  and  _314
REMARK  134  A    between atoms: _314  and  _315
REMARK  135  A    between atoms: _315  and  _316
REMARK  136  A    between atoms: _321  and  _323
REMARK  137  A    between atoms: _323  and  _324
REMARK  138  A    between atoms: _323  and  _326
REMARK  139  A    between atoms: _326  and  _327
REMARK  140  A    between atoms: _333  and  _335
REMARK  141  A    between atoms: _335  and  _336
REMARK  142  A    between atoms: _335  and  _338
REMARK  143  A    between atoms: _340  and  _342
REMARK  144  A    between atoms: _342  and  _343
REMARK  145  A    between atoms: _342  and  _345
REMARK  146  A    between atoms: _345  and  _346
REMARK  147  A    between atoms: _346  and  _347
REMARK  148  A    between atoms: _349  and  _351
REMARK  149  A    between atoms: _351  and  _352
REMARK  150  A    between atoms: _351  and  _354
REMARK  151  A    between atoms: _354  and  _355
REMARK  152  A    between atoms: _360  and  _362
REMARK  153  A    between atoms: _362  and  _363
REMARK  154  A    between atoms: _365  and  _367
REMARK  155  A    between atoms: _367  and  _368
REMARK  156  A    between atoms: _367  and  _370
REMARK  157  A    between atoms: _373  and  _375
REMARK  158  A    between atoms: _375  and  _376
REMARK  159  A    between atoms: _375  and  _378
REMARK  160  A    between atoms: _378  and  _379
REMARK  161  A    between atoms: _379  and  _380
REMARK  162  A    between atoms: _383  and  _385
REMARK  163  A    between atoms: _385  and  _386
REMARK  164  A    between atoms: _385  and  _388
REMARK  165  A    between atoms: _388  and  _389
REMARK  166  A    between atoms: _392  and  _394
REMARK  167  A    between atoms: _394  and  _395
REMARK  168  A    between atoms: _394  and  _397
REMARK  169  A    between atoms: _397  and  _398
REMARK  170  A    between atoms: _400  and  _402
REMARK  171  A    between atoms: _402  and  _403
REMARK  172  A    between atoms: _402  and  _405
REMARK  173  A    between atoms: _405  and  _406
REMARK  174  A    between atoms: _416  and  _418
REMARK  175  A    between atoms: _418  and  _419
REMARK  176  A    between atoms: _418  and  _421
REMARK  177  A    between atoms: _421  and  _422
REMARK  178  A    between atoms: _424  and  _426
REMARK  179  A    between atoms: _426  and  _427
REMARK  180  A    between atoms: _426  and  _429
REMARK  181  A    between atoms: _429  and  _430
REMARK  182  A    between atoms: _430  and  _431
REMARK  183  A    between atoms: _434  and  _436
REMARK  184  A    between atoms: _436  and  _437
REMARK  185  A    between atoms: _436  and  _439
REMARK  186  A    between atoms: _439  and  _440
REMARK  187  A    between atoms: _440  and  _441
REMARK  188  A    between atoms: _441  and  _442
REMARK                            x       y       z     vdW  Elec       q    Type
REMARK                         _______ _______ _______ _____ _____    ______ ____
ROOT
ATOM      1  CA  TRP A   1      -6.812 -24.225 -31.540  0.00  0.00    +0.149 C 
ENDROOT
BRANCH   1   2
ATOM      2  C   TRP A   1      -7.194 -24.740 -32.922  0.00  0.00    +0.239 C 
ATOM      3  N   ASP A   2      -6.431 -25.680 -33.485  0.00  0.00    -0.298 N 
ATOM      4  H   ASP A   2      -6.808 -26.163 -34.325  0.00  0.00    +0.150 HD
ATOM      5  O   TRP A   1      -8.184 -24.281 -33.488  0.00  0.00    -0.274 OA
BRANCH   3   6
ATOM      6  CA  ASP A   2      -5.112 -26.083 -33.016  0.00  0.00    +0.148 C 
BRANCH   6   7
ATOM      7  C   ASP A   2      -4.212 -26.399 -34.213  0.00  0.00    +0.227 C 
ATOM      8  O   ASP A   2      -4.527 -26.024 -35.351  0.00  0.00    -0.286 OA
ENDBRANCH   6   7
BRANCH   6   9
ATOM      9  CB  ASP A   2      -5.182 -27.241 -32.000  0.00  0.00    +0.142 C 
BRANCH   9  10
ATOM     10  CG  ASP A   2      -5.706 -28.545 -32.592  0.00  0.00    +0.367 C 
ATOM     11  OD2 ASP A   2      -5.629 -29.569 -31.874  0.00  0.00    -0.246 OA
ATOM     12  OD1 ASP A   2      -6.190 -28.572 -33.745  0.00  0.00    -0.246 OA
ENDBRANCH   9  10
ENDBRANCH   6   9
ENDBRANCH   3   6
ENDBRANCH   1   2
BRANCH   1  13
ATOM     13  N   TRP A   1      -6.394 -22.832 -31.590  0.00  0.00    -0.238 NA
ATOM     14  H   TRP A   1      -7.114 -22.087 -31.679  0.00  0.00    +0.142 HD
ENDBRANCH   1  13
BRANCH   1  15
ATOM     15  CB  TRP A   1      -7.993 -24.439 -30.599  0.00  0.00    +0.054 C 
BRANCH  15  16
ATOM     16  CG  TRP A   1      -8.194 -25.902 -30.395  0.00  0.00    -0.002 A 
ATOM     17  CD2 TRP A   1      -7.533 -26.724 -29.428  0.00  0.00    +0.013 A 
ATOM     18  CE3 TRP A   1      -6.617 -26.467 -28.396  0.00  0.00    +0.001 A 
ATOM     19  CZ3 TRP A   1      -6.181 -27.531 -27.617  0.00  0.00    +0.000 A 
ATOM     20  CH2 TRP A   1      -6.650 -28.838 -27.847  0.00  0.00    +0.001 A 
ATOM     21  CZ2 TRP A   1      -7.550 -29.114 -28.844  0.00  0.00    +0.017 A 
ATOM     22  CE2 TRP A   1      -7.984 -28.048 -29.630  0.00  0.00    +0.056 A 
ATOM     23  NE1 TRP A   1      -8.855 -28.028 -30.686  0.00  0.00    -0.352 N 
ATOM     24  HE1 TRP A   1      -9.346 -28.856 -31.080  0.00  0.00    +0.166 HD
ATOM     25  CD1 TRP A   1      -8.975 -26.738 -31.140  0.00  0.00    +0.068 A 
ENDBRANCH  15  16
ENDBRANCH   1  15
TORSDOF 8
REMARK  Name = ../refined-set-2016/3t08/3t08_pocket.pdb
REMARK  188 active torsions:
REMARK  status: ('A' for Active; 'I' for Inactive)
REMARK    1  A    between atoms: _1  and  _3
REMARK    2  A    between atoms: _3  and  _4
REMARK    3  A    between atoms: _3  and  _6
REMARK    4  A    between atoms: _6  and  _7
REMARK    5  A    between atoms: _12  and  _13
REMARK    6  A    between atoms: _15  and  _17
REMARK    7  A    between atoms: _17  and  _18
REMARK    8  A    between atoms: _17  and  _20
REMARK    9  A    between atoms: _20  and  _21
REMARK   10  A    between atoms: _26  and  _28
REMARK   11  A    between atoms: _28  and  _29
REMARK   12  A    between atoms: _28  and  _31
REMARK   13  A    between atoms: _34  and  _36
REMARK   14  A    between atoms: _36  and  _37
REMARK   15  A    between atoms: _36  and  _39
REMARK   16  A    between atoms: _39  and  _40
REMARK   17  A    between atoms: _43  and  _45
REMARK   18  A    between atoms: _45  and  _46
REMARK   19  A    between atoms: _45  and  _48
REMARK   20  A    between atoms: _48  and  _49
REMARK   21  A    between atoms: _49  and  _50
REMARK   22  A    between atoms: _55  and  _57
REMARK   23  A    between atoms: _57  and  _58
REMARK   24  A    between atoms: _57  and  _60
REMARK   25  A    between atoms: _60  and  _61
REMARK   26  A    between atoms: _64  and  _66
REMARK   27  A    between atoms: _66  and  _67
REMARK   28  A    between atoms: _66  and  _69
REMARK   29  A    between atoms: _69  and  _70
REMARK   30  A    between atoms: _70  and  _71
REMARK   31  A    between atoms: _73  and  _75
REMARK   32  A    between atoms: _75  and  _76
REMARK   33  A    between atoms: _75  and  _78
REMARK   34  A    between atoms: _78  and  _79
REMARK   35  A    between atoms: _84  and  _86
REMARK   36  A    between atoms: _86  and  _87
REMARK   37  A    between atoms: _86  and  _89
REMARK   38  A    between atoms: _89  and  _90
REMARK   39  A    between atoms: _95  and  _97
REMARK   40  A    between atoms: _97  and  _98
REMARK   41  A    between atoms: _97  and  _100
REMARK   42  A    between atoms: _100  and  _101
REMARK   43  A    between atoms: _101  and  _102
REMARK   44  A    between atoms: _102  and  _103
REMARK   45  A    between atoms: _112  and  _114
REMARK   46  A    between atoms: _114  and  _115
REMARK   47  A    between atoms: _114  and  _117
REMARK   48  A    between atoms: _117  and  _118
REMARK   49  A    between atoms: _123  and  _125
REMARK   50  A    between atoms: _125  and  _126
REMARK   51  A    between atoms: _125  and  _128
REMARK   52  A    between atoms: _128  and  _129
REMARK   53  A    between atoms: _129  and  _130
REMARK   54  A    between atoms: _133  and  _135
REMARK   55  A    between atoms: _135  and  _136
REMARK   56  A    between atoms: _135  and  _138
REMARK   57  A    between atoms: _138  and  _139
REMARK   58  A    between atoms: _140  and  MG_451
REMARK   59  A    between atoms: _144  and  _146
REMARK   60  A    between atoms: _146  and  _147
REMARK   61  A    between atoms: _146  and  _149
REMARK   62  A    between atoms: _149  and  _150
REMARK   63  A    between atoms: _150  and  _151
REMARK   64  A    between atoms: _153  and  _155
REMARK   65  A    between atoms: _155  and  _156
REMARK   66  A    between atoms: _155  and  _158
REMARK   67  A    between atoms: _158  and  _159
REMARK   68  A    between atoms: _164  and  _166
REMARK   69  A    between atoms: _166  and  _167
REMARK   70  A    between atoms: _166  and  _169
REMARK   71  A    between atoms: _169  and  _170
REMARK   72  A    between atoms: _170  and  _171
REMARK   73  A    between atoms: _174  and  _176
REMARK   74  A    between atoms: _176  and  _177
REMARK   75  A    between atoms: _176  and  _179
REMARK   76  A    between atoms: _179  and  _180
REMARK   77  A    between atoms: _180  and  _181
REMARK   78  A    between atoms: _184  and  _186
REMARK   79  A    between atoms: _186  and  _187
REMARK   80  A    between atoms: _186  and  _189
REMARK   81  A    between atoms: _189  and  _190
REMARK   82  A    between atoms: _190  and  _191
REMARK   83  A    between atoms: _193  and  _195
REMARK   84  A    between atoms: _195  and  _196
REMARK   85  A    between atoms: _195  and  _198
REMARK   86  A    between atoms: _198  and  _199
REMARK   87  A    between atoms: _204  and  _205
REMARK   88  A    between atoms: _207  and  _209
REMARK   89  A    between atoms: _209  and  _210
REMARK   90  A    between atoms: _209  and  _212
REMARK   91  A    between atoms: _212  and  _213
REMARK   92  A    between atoms: _213  and  _214
REMARK   93  A    between atoms: _214  and  _215
REMARK   94  A    between atoms: _215  and  _216
REMARK   95  A    between atoms: _220  and  _222
REMARK   96  A    between atoms: _222  and  _223
REMARK   97  A    between atoms: _222  and  _225
REMARK   98  A    between atoms: _227  and  _229
REMARK   99  A    between atoms: _229  and  _230
REMARK  100  A    between atoms: _229  and  _232
REMARK  101  A    between atoms: _232  and  _233
REMARK  102  A    between atoms: _233  and  _234
REMARK  103  A    between atoms: _237  and  _239
REMARK  104  A    between atoms: _239  and  _240
REMARK  105  A    between atoms: _239  and  _242
REMARK  106  A    between atoms: _242  and  _243
REMARK  107  A    between atoms: _248  and  _250
REMARK  108  A    between atoms: _250  and  _251
REMARK  109  A    between atoms: _254  and  _256
REMARK  110  A    between atoms: _256  and  _257
REMARK  111  A    between atoms: _256  and  _259
REMARK  112  A    between atoms: _259  and  _260
REMARK  113  A    between atoms: _260  and  _261
REMARK  114  A    between atoms: _263  and  _265
REMARK  115  A    between atoms: _265  and  _266
REMARK  116  A    between atoms: _265  and  _268
REMARK  117  A    between atoms: _268  and  _269
REMARK  118  A    between atoms: _279  and  _281
REMARK  119  A    between atoms: _281  and  _282
REMARK  120  A    between atoms: _281  and  _284
REMARK  121  A    between atoms: _284  and  _285
REMARK  122  A    between atoms: _288  and  _290
REMARK  123  A    between atoms: _290  and  _291
REMARK  124  A    between atoms: _290  and  _293
REMARK  125  A    between atoms: _293  and  _294
REMARK  126  A    between atoms: _294  and  _295
REMARK  127  A    between atoms: _300  and  _302
REMARK  128  A    between atoms: _302  and  _303
REMARK  129  A    between atoms: _302  and  _305
REMARK  130  A    between atoms: _305  and  _306
REMARK  131  A    between atoms: _309  and  _311
REMARK  132  A    between atoms: _311  and  _312
REMARK  133  A    between atoms: _311  and  _314
REMARK  134  A    between atoms: _314  and  _315
REMARK  135  A    between atoms: _315  and  _316
REMARK  136  A    between atoms: _321  and  _323
REMARK  137  A    between atoms: _323  and  _324
REMARK  138  A    between atoms: _323  and  _326
REMARK  139  A    between atoms: _326  and  _327
REMARK  140  A    between atoms: _333  and  _335
REMARK  141  A    between atoms: _335  and  _336
REMARK  142  A    between atoms: _335  and  _338
REMARK  143  A    between atoms: _340  and  _342
REMARK  144  A    between atoms: _342  and  _343
REMARK  145  A    between atoms: _342  and  _345
REMARK  146  A    between atoms: _345  and  _346
REMARK  147  A    between atoms: _346  and  _347
REMARK  148  A    between atoms: _349  and  _351
REMARK  149  A    between atoms: _351  and  _352
REMARK  150  A    between atoms: _351  and  _354
REMARK  151  A    between atoms: _354  and  _355
REMARK  152  A    between atoms: _360  and  _362
REMARK  153  A    between atoms: _362  and  _363
REMARK  154  A    between atoms: _365  and  _367
REMARK  155  A    between atoms: _367  and  _368
REMARK  156  A    between atoms: _367  and  _370
REMARK  157  A    between atoms: _373  and  _375
REMARK  158  A    between atoms: _375  and  _376
REMARK  159  A    between atoms: _375  and  _378
REMARK  160  A    between atoms: _378  and  _379
REMARK  161  A    between atoms: _379  and  _380
REMARK  162  A    between atoms: _383  and  _385
REMARK  163  A    between atoms: _385  and  _386
REMARK  164  A    between atoms: _385  and  _388
REMARK  165  A    between atoms: _388  and  _389
REMARK  166  A    between atoms: _392  and  _394
REMARK  167  A    between atoms: _394  and  _395
REMARK  168  A    between atoms: _394  and  _397
REMARK  169  A    between atoms: _397  and  _398
REMARK  170  A    between atoms: _400  and  _402
REMARK  171  A    between atoms: _402  and  _403
REMARK  172  A    between atoms: _402  and  _405
REMARK  173  A    between atoms: _405  and  _406
REMARK  174  A    between atoms: _416  and  _418
REMARK  175  A    between atoms: _418  and  _419
REMARK  176  A    between atoms: _418  and  _421
REMARK  177  A    between atoms: _421  and  _422
REMARK  178  A    between atoms: _424  and  _426
REMARK  179  A    between atoms: _426  and  _427
REMARK  180  A    between atoms: _426  and  _429
REMARK  181  A    between atoms: _429  and  _430
REMARK  182  A    between atoms: _430  and  _431
REMARK  183  A    between atoms: _434  and  _436
REMARK  184  A    between atoms: _436  and  _437
REMARK  185  A    between atoms: _436  and  _439
REMARK  186  A    between atoms: _439  and  _440
REMARK  187  A    between atoms: _440  and  _441
REMARK  188  A    between atoms: _441  and  _442
REMARK                            x       y       z     vdW  Elec       q    Type
REMARK                         _______ _______ _______ _____ _____    ______ ____
ROOT
ATOM      1  CB  GLN A   1      -6.858 -35.640 -33.915  0.00  0.00    +0.035 C 
ENDROOT
BRANCH   1   2
ATOM      2  CA  GLN A   1      -6.430 -35.593 -35.378  0.00  0.00    +0.134 C 
BRANCH   2   3
ATOM      3  N   GLN A   1      -6.607 -34.253 -35.945  0.00  0.00    -0.239 NA
ATOM      4  H   GLN A   1      -7.346 -33.628 -35.564  0.00  0.00    +0.142 HD
ENDBRANCH   2   3
BRANCH   2   5
ATOM      5  C   GLN A   1      -7.183 -36.665 -36.176  0.00  0.00    +0.224 C 
ATOM      6  O   GLN A   1      -7.884 -37.493 -35.602  0.00  0.00    -0.287 OA
ENDBRANCH   2   5
ENDBRANCH   1   2
BRANCH   1   7
ATOM      7  CG  GLN A   1      -5.966 -34.877 -32.960  0.00  0.00    +0.087 C 
BRANCH   7   8
ATOM      8  CD  GLN A   1      -6.355 -35.115 -31.513  0.00  0.00    +0.219 C 
ATOM      9  NE2 GLN A   1      -6.456 -34.040 -30.744  0.00  0.00    -0.329 N 
ATOM     10 HE21 GLN A   1      -6.726 -34.139 -29.745  0.00  0.00    +0.145 HD
ATOM     11 HE22 GLN A   1      -6.265 -33.098 -31.140  0.00  0.00    +0.145 HD
ATOM     12  OE1 GLN A   1      -6.570 -36.253 -31.095  0.00  0.00    -0.275 OA
ENDBRANCH   7   8
ENDBRANCH   1   7
TORSDOF 5
REMARK  Name = ../refined-set-2016/3t08/3t08_pocket.pdb
REMARK  188 active torsions:
REMARK  status: ('A' for Active; 'I' for Inactive)
REMARK    1  A    between atoms: _1  and  _3
REMARK    2  A    between atoms: _3  and  _4
REMARK    3  A    between atoms: _3  and  _6
REMARK    4  A    between atoms: _6  and  _7
REMARK    5  A    between atoms: _12  and  _13
REMARK    6  A    between atoms: _15  and  _17
REMARK    7  A    between atoms: _17  and  _18
REMARK    8  A    between atoms: _17  and  _20
REMARK    9  A    between atoms: _20  and  _21
REMARK   10  A    between atoms: _26  and  _28
REMARK   11  A    between atoms: _28  and  _29
REMARK   12  A    between atoms: _28  and  _31
REMARK   13  A    between atoms: _34  and  _36
REMARK   14  A    between atoms: _36  and  _37
REMARK   15  A    between atoms: _36  and  _39
REMARK   16  A    between atoms: _39  and  _40
REMARK   17  A    between atoms: _43  and  _45
REMARK   18  A    between atoms: _45  and  _46
REMARK   19  A    between atoms: _45  and  _48
REMARK   20  A    between atoms: _48  and  _49
REMARK   21  A    between atoms: _49  and  _50
REMARK   22  A    between atoms: _55  and  _57
REMARK   23  A    between atoms: _57  and  _58
REMARK   24  A    between atoms: _57  and  _60
REMARK   25  A    between atoms: _60  and  _61
REMARK   26  A    between atoms: _64  and  _66
REMARK   27  A    between atoms: _66  and  _67
REMARK   28  A    between atoms: _66  and  _69
REMARK   29  A    between atoms: _69  and  _70
REMARK   30  A    between atoms: _70  and  _71
REMARK   31  A    between atoms: _73  and  _75
REMARK   32  A    between atoms: _75  and  _76
REMARK   33  A    between atoms: _75  and  _78
REMARK   34  A    between atoms: _78  and  _79
REMARK   35  A    between atoms: _84  and  _86
REMARK   36  A    between atoms: _86  and  _87
REMARK   37  A    between atoms: _86  and  _89
REMARK   38  A    between atoms: _89  and  _90
REMARK   39  A    between atoms: _95  and  _97
REMARK   40  A    between atoms: _97  and  _98
REMARK   41  A    between atoms: _97  and  _100
REMARK   42  A    between atoms: _100  and  _101
REMARK   43  A    between atoms: _101  and  _102
REMARK   44  A    between atoms: _102  and  _103
REMARK   45  A    between atoms: _112  and  _114
REMARK   46  A    between atoms: _114  and  _115
REMARK   47  A    between atoms: _114  and  _117
REMARK   48  A    between atoms: _117  and  _118
REMARK   49  A    between atoms: _123  and  _125
REMARK   50  A    between atoms: _125  and  _126
REMARK   51  A    between atoms: _125  and  _128
REMARK   52  A    between atoms: _128  and  _129
REMARK   53  A    between atoms: _129  and  _130
REMARK   54  A    between atoms: _133  and  _135
REMARK   55  A    between atoms: _135  and  _136
REMARK   56  A    between atoms: _135  and  _138
REMARK   57  A    between atoms: _138  and  _139
REMARK   58  A    between atoms: _140  and  MG_451
REMARK   59  A    between atoms: _144  and  _146
REMARK   60  A    between atoms: _146  and  _147
REMARK   61  A    between atoms: _146  and  _149
REMARK   62  A    between atoms: _149  and  _150
REMARK   63  A    between atoms: _150  and  _151
REMARK   64  A    between atoms: _153  and  _155
REMARK   65  A    between atoms: _155  and  _156
REMARK   66  A    between atoms: _155  and  _158
REMARK   67  A    between atoms: _158  and  _159
REMARK   68  A    between atoms: _164  and  _166
REMARK   69  A    between atoms: _166  and  _167
REMARK   70  A    between atoms: _166  and  _169
REMARK   71  A    between atoms: _169  and  _170
REMARK   72  A    between atoms: _170  and  _171
REMARK   73  A    between atoms: _174  and  _176
REMARK   74  A    between atoms: _176  and  _177
REMARK   75  A    between atoms: _176  and  _179
REMARK   76  A    between atoms: _179  and  _180
REMARK   77  A    between atoms: _180  and  _181
REMARK   78  A    between atoms: _184  and  _186
REMARK   79  A    between atoms: _186  and  _187
REMARK   80  A    between atoms: _186  and  _189
REMARK   81  A    between atoms: _189  and  _190
REMARK   82  A    between atoms: _190  and  _191
REMARK   83  A    between atoms: _193  and  _195
REMARK   84  A    between atoms: _195  and  _196
REMARK   85  A    between atoms: _195  and  _198
REMARK   86  A    between atoms: _198  and  _199
REMARK   87  A    between atoms: _204  and  _205
REMARK   88  A    between atoms: _207  and  _209
REMARK   89  A    between atoms: _209  and  _210
REMARK   90  A    between atoms: _209  and  _212
REMARK   91  A    between atoms: _212  and  _213
REMARK   92  A    between atoms: _213  and  _214
REMARK   93  A    between atoms: _214  and  _215
REMARK   94  A    between atoms: _215  and  _216
REMARK   95  A    between atoms: _220  and  _222
REMARK   96  A    between atoms: _222  and  _223
REMARK   97  A    between atoms: _222  and  _225
REMARK   98  A    between atoms: _227  and  _229
REMARK   99  A    between atoms: _229  and  _230
REMARK  100  A    between atoms: _229  and  _232
REMARK  101  A    between atoms: _232  and  _233
REMARK  102  A    between atoms: _233  and  _234
REMARK  103  A    between atoms: _237  and  _239
REMARK  104  A    between atoms: _239  and  _240
REMARK  105  A    between atoms: _239  and  _242
REMARK  106  A    between atoms: _242  and  _243
REMARK  107  A    between atoms: _248  and  _250
REMARK  108  A    between atoms: _250  and  _251
REMARK  109  A    between atoms: _254  and  _256
REMARK  110  A    between atoms: _256  and  _257
REMARK  111  A    between atoms: _256  and  _259
REMARK  112  A    between atoms: _259  and  _260
REMARK  113  A    between atoms: _260  and  _261
REMARK  114  A    between atoms: _263  and  _265
REMARK  115  A    between atoms: _265  and  _266
REMARK  116  A    between atoms: _265  and  _268
REMARK  117  A    between atoms: _268  and  _269
REMARK  118  A    between atoms: _279  and  _281
REMARK  119  A    between atoms: _281  and  _282
REMARK  120  A    between atoms: _281  and  _284
REMARK  121  A    between atoms: _284  and  _285
REMARK  122  A    between atoms: _288  and  _290
REMARK  123  A    between atoms: _290  and  _291
REMARK  124  A    between atoms: _290  and  _293
REMARK  125  A    between atoms: _293  and  _294
REMARK  126  A    between atoms: _294  and  _295
REMARK  127  A    between atoms: _300  and  _302
REMARK  128  A    between atoms: _302  and  _303
REMARK  129  A    between atoms: _302  and  _305
REMARK  130  A    between atoms: _305  and  _306
REMARK  131  A    between atoms: _309  and  _311
REMARK  132  A    between atoms: _311  and  _312
REMARK  133  A    between atoms: _311  and  _314
REMARK  134  A    between atoms: _314  and  _315
REMARK  135  A    between atoms: _315  and  _316
REMARK  136  A    between atoms: _321  and  _323
REMARK  137  A    between atoms: _323  and  _324
REMARK  138  A    between atoms: _323  and  _326
REMARK  139  A    between atoms: _326  and  _327
REMARK  140  A    between atoms: _333  and  _335
REMARK  141  A    between atoms: _335  and  _336
REMARK  142  A    between atoms: _335  and  _338
REMARK  143  A    between atoms: _340  and  _342
REMARK  144  A    between atoms: _342  and  _343
REMARK  145  A    between atoms: _342  and  _345
REMARK  146  A    between atoms: _345  and  _346
REMARK  147  A    between atoms: _346  and  _347
REMARK  148  A    between atoms: _349  and  _351
REMARK  149  A    between atoms: _351  and  _352
REMARK  150  A    between atoms: _351  and  _354
REMARK  151  A    between atoms: _354  and  _355
REMARK  152  A    between atoms: _360  and  _362
REMARK  153  A    between atoms: _362  and  _363
REMARK  154  A    between atoms: _365  and  _367
REMARK  155  A    between atoms: _367  and  _368
REMARK  156  A    between atoms: _367  and  _370
REMARK  157  A    between atoms: _373  and  _375
REMARK  158  A    between atoms: _375  and  _376
REMARK  159  A    between atoms: _375  and  _378
REMARK  160  A    between atoms: _378  and  _379
REMARK  161  A    between atoms: _379  and  _380
REMARK  162  A    between atoms: _383  and  _385
REMARK  163  A    between atoms: _385  and  _386
REMARK  164  A    between atoms: _385  and  _388
REMARK  165  A    between atoms: _388  and  _389
REMARK  166  A    between atoms: _392  and  _394
REMARK  167  A    between atoms: _394  and  _395
REMARK  168  A    between atoms: _394  and  _397
REMARK  169  A    between atoms: _397  and  _398
REMARK  170  A    between atoms: _400  and  _402
REMARK  171  A    between atoms: _402  and  _403
REMARK  172  A    between atoms: _402  and  _405
REMARK  173  A    between atoms: _405  and  _406
REMARK  174  A    between atoms: _416  and  _418
REMARK  175  A    between atoms: _418  and  _419
REMARK  176  A    between atoms: _418  and  _421
REMARK  177  A    between atoms: _421  and  _422
REMARK  178  A    between atoms: _424  and  _426
REMARK  179  A    between atoms: _426  and  _427
REMARK  180  A    between atoms: _426  and  _429
REMARK  181  A    between atoms: _429  and  _430
REMARK  182  A    between atoms: _430  and  _431
REMARK  183  A    between atoms: _434  and  _436
REMARK  184  A    between atoms: _436  and  _437
REMARK  185  A    between atoms: _436  and  _439
REMARK  186  A    between atoms: _439  and  _440
REMARK  187  A    between atoms: _440  and  _441
REMARK  188  A    between atoms: _441  and  _442
REMARK                            x       y       z     vdW  Elec       q    Type
REMARK                         _______ _______ _______ _____ _____    ______ ____
ROOT
ATOM      1  CA  ASP A   1     -17.806 -36.951 -31.208  0.00  0.00    +0.144 C 
ENDROOT
BRANCH   1   2
ATOM      2  N   ASP A   1     -17.517 -38.343 -30.872  0.00  0.00    -0.239 NA
ATOM      3  H   ASP A   1     -16.528 -38.664 -30.844  0.00  0.00    +0.142 HD
ENDBRANCH   1   2
BRANCH   1   4
ATOM      4  C   ASP A   1     -17.369 -36.584 -32.627  0.00  0.00    +0.225 C 
ATOM      5  O   ASP A   1     -16.945 -35.452 -32.899  0.00  0.00    -0.287 OA
ENDBRANCH   1   4
BRANCH   1   6
ATOM      6  CB  ASP A   1     -17.231 -36.005 -30.150  0.00  0.00    +0.139 C 
BRANCH   6   7
ATOM      7  CG  ASP A   1     -17.988 -36.087 -28.835  0.00  0.00    +0.367 C 
ATOM      8  OD2 ASP A   1     -17.429 -36.615 -27.851  0.00  0.00    -0.246 OA
ATOM      9  OD1 ASP A   1     -19.151 -35.640 -28.793  0.00  0.00    -0.246 OA
ENDBRANCH   6   7
ENDBRANCH   1   6
TORSDOF 4
REMARK  Name = ../refined-set-2016/3t08/3t08_pocket.pdb
REMARK  188 active torsions:
REMARK  status: ('A' for Active; 'I' for Inactive)
REMARK    1  A    between atoms: _1  and  _3
REMARK    2  A    between atoms: _3  and  _4
REMARK    3  A    between atoms: _3  and  _6
REMARK    4  A    between atoms: _6  and  _7
REMARK    5  A    between atoms: _12  and  _13
REMARK    6  A    between atoms: _15  and  _17
REMARK    7  A    between atoms: _17  and  _18
REMARK    8  A    between atoms: _17  and  _20
REMARK    9  A    between atoms: _20  and  _21
REMARK   10  A    between atoms: _26  and  _28
REMARK   11  A    between atoms: _28  and  _29
REMARK   12  A    between atoms: _28  and  _31
REMARK   13  A    between atoms: _34  and  _36
REMARK   14  A    between atoms: _36  and  _37
REMARK   15  A    between atoms: _36  and  _39
REMARK   16  A    between atoms: _39  and  _40
REMARK   17  A    between atoms: _43  and  _45
REMARK   18  A    between atoms: _45  and  _46
REMARK   19  A    between atoms: _45  and  _48
REMARK   20  A    between atoms: _48  and  _49
REMARK   21  A    between atoms: _49  and  _50
REMARK   22  A    between atoms: _55  and  _57
REMARK   23  A    between atoms: _57  and  _58
REMARK   24  A    between atoms: _57  and  _60
REMARK   25  A    between atoms: _60  and  _61
REMARK   26  A    between atoms: _64  and  _66
REMARK   27  A    between atoms: _66  and  _67
REMARK   28  A    between atoms: _66  and  _69
REMARK   29  A    between atoms: _69  and  _70
REMARK   30  A    between atoms: _70  and  _71
REMARK   31  A    between atoms: _73  and  _75
REMARK   32  A    between atoms: _75  and  _76
REMARK   33  A    between atoms: _75  and  _78
REMARK   34  A    between atoms: _78  and  _79
REMARK   35  A    between atoms: _84  and  _86
REMARK   36  A    between atoms: _86  and  _87
REMARK   37  A    between atoms: _86  and  _89
REMARK   38  A    between atoms: _89  and  _90
REMARK   39  A    between atoms: _95  and  _97
REMARK   40  A    between atoms: _97  and  _98
REMARK   41  A    between atoms: _97  and  _100
REMARK   42  A    between atoms: _100  and  _101
REMARK   43  A    between atoms: _101  and  _102
REMARK   44  A    between atoms: _102  and  _103
REMARK   45  A    between atoms: _112  and  _114
REMARK   46  A    between atoms: _114  and  _115
REMARK   47  A    between atoms: _114  and  _117
REMARK   48  A    between atoms: _117  and  _118
REMARK   49  A    between atoms: _123  and  _125
REMARK   50  A    between atoms: _125  and  _126
REMARK   51  A    between atoms: _125  and  _128
REMARK   52  A    between atoms: _128  and  _129
REMARK   53  A    between atoms: _129  and  _130
REMARK   54  A    between atoms: _133  and  _135
REMARK   55  A    between atoms: _135  and  _136
REMARK   56  A    between atoms: _135  and  _138
REMARK   57  A    between atoms: _138  and  _139
REMARK   58  A    between atoms: _140  and  MG_451
REMARK   59  A    between atoms: _144  and  _146
REMARK   60  A    between atoms: _146  and  _147
REMARK   61  A    between atoms: _146  and  _149
REMARK   62  A    between atoms: _149  and  _150
REMARK   63  A    between atoms: _150  and  _151
REMARK   64  A    between atoms: _153  and  _155
REMARK   65  A    between atoms: _155  and  _156
REMARK   66  A    between atoms: _155  and  _158
REMARK   67  A    between atoms: _158  and  _159
REMARK   68  A    between atoms: _164  and  _166
REMARK   69  A    between atoms: _166  and  _167
REMARK   70  A    between atoms: _166  and  _169
REMARK   71  A    between atoms: _169  and  _170
REMARK   72  A    between atoms: _170  and  _171
REMARK   73  A    between atoms: _174  and  _176
REMARK   74  A    between atoms: _176  and  _177
REMARK   75  A    between atoms: _176  and  _179
REMARK   76  A    between atoms: _179  and  _180
REMARK   77  A    between atoms: _180  and  _181
REMARK   78  A    between atoms: _184  and  _186
REMARK   79  A    between atoms: _186  and  _187
REMARK   80  A    between atoms: _186  and  _189
REMARK   81  A    between atoms: _189  and  _190
REMARK   82  A    between atoms: _190  and  _191
REMARK   83  A    between atoms: _193  and  _195
REMARK   84  A    between atoms: _195  and  _196
REMARK   85  A    between atoms: _195  and  _198
REMARK   86  A    between atoms: _198  and  _199
REMARK   87  A    between atoms: _204  and  _205
REMARK   88  A    between atoms: _207  and  _209
REMARK   89  A    between atoms: _209  and  _210
REMARK   90  A    between atoms: _209  and  _212
REMARK   91  A    between atoms: _212  and  _213
REMARK   92  A    between atoms: _213  and  _214
REMARK   93  A    between atoms: _214  and  _215
REMARK   94  A    between atoms: _215  and  _216
REMARK   95  A    between atoms: _220  and  _222
REMARK   96  A    between atoms: _222  and  _223
REMARK   97  A    between atoms: _222  and  _225
REMARK   98  A    between atoms: _227  and  _229
REMARK   99  A    between atoms: _229  and  _230
REMARK  100  A    between atoms: _229  and  _232
REMARK  101  A    between atoms: _232  and  _233
REMARK  102  A    between atoms: _233  and  _234
REMARK  103  A    between atoms: _237  and  _239
REMARK  104  A    between atoms: _239  and  _240
REMARK  105  A    between atoms: _239  and  _242
REMARK  106  A    between atoms: _242  and  _243
REMARK  107  A    between atoms: _248  and  _250
REMARK  108  A    between atoms: _250  and  _251
REMARK  109  A    between atoms: _254  and  _256
REMARK  110  A    between atoms: _256  and  _257
REMARK  111  A    between atoms: _256  and  _259
REMARK  112  A    between atoms: _259  and  _260
REMARK  113  A    between atoms: _260  and  _261
REMARK  114  A    between atoms: _263  and  _265
REMARK  115  A    between atoms: _265  and  _266
REMARK  116  A    between atoms: _265  and  _268
REMARK  117  A    between atoms: _268  and  _269
REMARK  118  A    between atoms: _279  and  _281
REMARK  119  A    between atoms: _281  and  _282
REMARK  120  A    between atoms: _281  and  _284
REMARK  121  A    between atoms: _284  and  _285
REMARK  122  A    between atoms: _288  and  _290
REMARK  123  A    between atoms: _290  and  _291
REMARK  124  A    between atoms: _290  and  _293
REMARK  125  A    between atoms: _293  and  _294
REMARK  126  A    between atoms: _294  and  _295
REMARK  127  A    between atoms: _300  and  _302
REMARK  128  A    between atoms: _302  and  _303
REMARK  129  A    between atoms: _302  and  _305
REMARK  130  A    between atoms: _305  and  _306
REMARK  131  A    between atoms: _309  and  _311
REMARK  132  A    between atoms: _311  and  _312
REMARK  133  A    between atoms: _311  and  _314
REMARK  134  A    between atoms: _314  and  _315
REMARK  135  A    between atoms: _315  and  _316
REMARK  136  A    between atoms: _321  and  _323
REMARK  137  A    between atoms: _323  and  _324
REMARK  138  A    between atoms: _323  and  _326
REMARK  139  A    between atoms: _326  and  _327
REMARK  140  A    between atoms: _333  and  _335
REMARK  141  A    between atoms: _335  and  _336
REMARK  142  A    between atoms: _335  and  _338
REMARK  143  A    between atoms: _340  and  _342
REMARK  144  A    between atoms: _342  and  _343
REMARK  145  A    between atoms: _342  and  _345
REMARK  146  A    between atoms: _345  and  _346
REMARK  147  A    between atoms: _346  and  _347
REMARK  148  A    between atoms: _349  and  _351
REMARK  149  A    between atoms: _351  and  _352
REMARK  150  A    between atoms: _351  and  _354
REMARK  151  A    between atoms: _354  and  _355
REMARK  152  A    between atoms: _360  and  _362
REMARK  153  A    between atoms: _362  and  _363
REMARK  154  A    between atoms: _365  and  _367
REMARK  155  A    between atoms: _367  and  _368
REMARK  156  A    between atoms: _367  and  _370
REMARK  157  A    between atoms: _373  and  _375
REMARK  158  A    between atoms: _375  and  _376
REMARK  159  A    between atoms: _375  and  _378
REMARK  160  A    between atoms: _378  and  _379
REMARK  161  A    between atoms: _379  and  _380
REMARK  162  A    between atoms: _383  and  _385
REMARK  163  A    between atoms: _385  and  _386
REMARK  164  A    between atoms: _385  and  _388
REMARK  165  A    between atoms: _388  and  _389
REMARK  166  A    between atoms: _392  and  _394
REMARK  167  A    between atoms: _394  and  _395
REMARK  168  A    between atoms: _394  and  _397
REMARK  169  A    between atoms: _397  and  _398
REMARK  170  A    between atoms: _400  and  _402
REMARK  171  A    between atoms: _402  and  _403
REMARK  172  A    between atoms: _402  and  _405
REMARK  173  A    between atoms: _405  and  _406
REMARK  174  A    between atoms: _416  and  _418
REMARK  175  A    between atoms: _418  and  _419
REMARK  176  A    between atoms: _418  and  _421
REMARK  177  A    between atoms: _421  and  _422
REMARK  178  A    between atoms: _424  and  _426
REMARK  179  A    between atoms: _426  and  _427
REMARK  180  A    between atoms: _426  and  _429
REMARK  181  A    between atoms: _429  and  _430
REMARK  182  A    between atoms: _430  and  _431
REMARK  183  A    between atoms: _434  and  _436
REMARK  184  A    between atoms: _436  and  _437
REMARK  185  A    between atoms: _436  and  _439
REMARK  186  A    between atoms: _439  and  _440
REMARK  187  A    between atoms: _440  and  _441
REMARK  188  A    between atoms: _441  and  _442
REMARK                            x       y       z     vdW  Elec       q    Type
REMARK                         _______ _______ _______ _____ _____    ______ ____
ROOT
ATOM      1  C   PHE A   2     -13.155 -32.892 -33.272  0.00  0.00    +0.241 C 
ATOM      2  O   PHE A   2     -12.531 -32.055 -32.627  0.00  0.00    -0.273 OA
ATOM      3  N   CYS A   3     -12.606 -34.020 -33.724  0.00  0.00    -0.296 N 
ATOM      4  H   CYS A   3     -13.210 -34.720 -34.201  0.00  0.00    +0.150 HD
ENDROOT
BRANCH   3   5
ATOM      5  CA  CYS A   3     -11.178 -34.302 -33.568  0.00  0.00    +0.160 C 
BRANCH   5   6
ATOM      6  C   CYS A   3     -10.315 -33.616 -34.629  0.00  0.00    +0.242 C 
ATOM      7  O   CYS A   3      -9.091 -33.705 -34.592  0.00  0.00    -0.273 OA
ATOM      8  N   MET A   4     -10.953 -32.924 -35.565  0.00  0.00    -0.297 N 
ATOM      9  H   MET A   4     -11.991 -32.865 -35.537  0.00  0.00    +0.150 HD
BRANCH   8  10
ATOM     10  CA  MET A   4     -10.227 -32.244 -36.633  0.00  0.00    +0.149 C 
BRANCH  10  11
ATOM     11  C   MET A   4     -10.423 -30.737 -36.539  0.00  0.00    +0.241 C 
ATOM     12  N   ASN A   5      -9.462 -30.070 -35.893  0.00  0.00    -0.298 N 
ATOM     13  H   ASN A   5      -8.636 -30.599 -35.547  0.00  0.00    +0.150 HD
ATOM     14  O   MET A   4     -11.421 -30.201 -37.024  0.00  0.00    -0.273 OA
BRANCH  12  15
ATOM     15  CA  ASN A   5      -9.521 -28.624 -35.651  0.00  0.00    +0.146 C 
BRANCH  15  16
ATOM     16  C   ASN A   5      -8.224 -27.960 -36.078  0.00  0.00    +0.227 C 
ATOM     17  O   ASN A   5      -7.889 -26.858 -35.611  0.00  0.00    -0.286 OA
ENDBRANCH  15  16
BRANCH  15  18
ATOM     18  CB  ASN A   5      -9.715 -28.317 -34.163  0.00  0.00    +0.112 C 
BRANCH  18  19
ATOM     19  CG  ASN A   5     -10.659 -29.262 -33.469  0.00  0.00    +0.222 C 
ATOM     20  OD1 ASN A   5     -10.358 -29.736 -32.374  0.00  0.00    -0.275 OA
ATOM     21  ND2 ASN A   5     -11.816 -29.527 -34.075  0.00  0.00    -0.329 N 
ATOM     22 HD21 ASN A   5     -12.508 -30.158 -33.622  0.00  0.00    +0.145 HD
ATOM     23 HD22 ASN A   5     -12.027 -29.103 -35.001  0.00  0.00    +0.145 HD
ENDBRANCH  18  19
ENDBRANCH  15  18
ENDBRANCH  12  15
ENDBRANCH  10  11
BRANCH  10  24
ATOM     24  CB  MET A   4     -10.654 -32.780 -38.005  0.00  0.00    +0.041 C 
BRANCH  24  25
ATOM     25  CG  MET A   4     -10.527 -34.306 -38.113  0.00  0.00    +0.060 C 
BRANCH  25  26
ATOM     26  SD  MET A   4     -10.932 -34.954 -39.740  0.00  0.00    -0.139 S 
ATOM     27  CE  MET A   4     -12.639 -34.460 -39.877  0.00  0.00    +0.069 C 
ENDBRANCH  25  26
ENDBRANCH  24  25
ENDBRANCH  10  24
ENDBRANCH   8  10
ENDBRANCH   5   6
BRANCH   5  28
ATOM     28  CB  CYS A   3     -10.913 -35.810 -33.563  0.00  0.00    +0.098 C 
ATOM     29  SG  CYS A   3     -11.458 -36.679 -35.054  0.00  0.00    -0.080 S 
ENDBRANCH   5  28
ENDBRANCH   3   5
BRANCH   1  30
ATOM     30  CA  PHE A   2     -14.623 -32.654 -33.615  0.00  0.00    +0.153 C 
BRANCH  30  32
ATOM     31  C   GLN A   1     -14.730 -33.633 -35.835  0.00  0.00    +0.238 C 
ATOM     32  N   PHE A   2     -15.170 -33.601 -34.581  0.00  0.00    -0.297 N 
ATOM     33  H   PHE A   2     -15.916 -34.262 -34.284  0.00  0.00    +0.150 HD
ATOM     34  O   GLN A   1     -13.831 -32.892 -36.249  0.00  0.00    -0.274 OA
BRANCH  31  35
ATOM     35  CA  GLN A   1     -15.370 -34.665 -36.768  0.00  0.00    +0.145 C 
BRANCH  35  36
ATOM     36  N   GLN A   1     -16.441 -35.449 -36.160  0.00  0.00    -0.238 NA
ATOM     37  H   GLN A   1     -17.429 -35.164 -36.314  0.00  0.00    +0.142 HD
ENDBRANCH  35  36
BRANCH  35  38
ATOM     38  CB  GLN A   1     -15.826 -34.007 -38.083  0.00  0.00    +0.036 C 
BRANCH  38  39
ATOM     39  CG  GLN A   1     -16.861 -32.901 -37.947  0.00  0.00    +0.087 C 
BRANCH  39  40
ATOM     40  CD  GLN A   1     -18.281 -33.396 -38.135  0.00  0.00    +0.219 C 
ATOM     41  OE1 GLN A   1     -18.676 -34.425 -37.579  0.00  0.00    -0.275 OA
ATOM     42  NE2 GLN A   1     -19.063 -32.655 -38.922  0.00  0.00    -0.329 N 
ATOM     43 HE21 GLN A   1     -20.050 -32.937 -39.088  0.00  0.00    +0.145 HD
ATOM     44 HE22 GLN A   1     -18.685 -31.795 -39.369  0.00  0.00    +0.145 HD
ENDBRANCH  39  40
ENDBRANCH  38  39
ENDBRANCH  35  38
ENDBRANCH  31  35
ENDBRANCH  30  32
BRANCH  30  45
ATOM     45  CB  PHE A   2     -15.499 -32.562 -32.360  0.00  0.00    +0.055 C 
BRANCH  45  46
ATOM     46  CG  PHE A   2     -16.537 -31.484 -32.446  0.00  0.00    -0.020 A 
ATOM     47  CD2 PHE A   2     -16.210 -30.161 -32.140  0.00  0.00    -0.004 A 
ATOM     48  CE2 PHE A   2     -17.162 -29.147 -32.232  0.00  0.00    -0.000 A 
ATOM     49  CZ  PHE A   2     -18.460 -29.450 -32.647  0.00  0.00    -0.000 A 
ATOM     50  CE1 PHE A   2     -18.795 -30.769 -32.967  0.00  0.00    -0.000 A 
ATOM     51  CD1 PHE A   2     -17.831 -31.777 -32.865  0.00  0.00    -0.004 A 
ENDBRANCH  45  46
ENDBRANCH  30  45
ENDBRANCH   1  30
TORSDOF 21
REMARK  Name = ../refined-set-2016/3t08/3t08_pocket.pdb
REMARK  188 active torsions:
REMARK  status: ('A' for Active; 'I' for Inactive)
REMARK    1  A    between atoms: _1  and  _3
REMARK    2  A    between atoms: _3  and  _4
REMARK    3  A    between atoms: _3  and  _6
REMARK    4  A    between atoms: _6  and  _7
REMARK    5  A    between atoms: _12  and  _13
REMARK    6  A    between atoms: _15  and  _17
REMARK    7  A    between atoms: _17  and  _18
REMARK    8  A    between atoms: _17  and  _20
REMARK    9  A    between atoms: _20  and  _21
REMARK   10  A    between atoms: _26  and  _28
REMARK   11  A    between atoms: _28  and  _29
REMARK   12  A    between atoms: _28  and  _31
REMARK   13  A    between atoms: _34  and  _36
REMARK   14  A    between atoms: _36  and  _37
REMARK   15  A    between atoms: _36  and  _39
REMARK   16  A    between atoms: _39  and  _40
REMARK   17  A    between atoms: _43  and  _45
REMARK   18  A    between atoms: _45  and  _46
REMARK   19  A    between atoms: _45  and  _48
REMARK   20  A    between atoms: _48  and  _49
REMARK   21  A    between atoms: _49  and  _50
REMARK   22  A    between atoms: _55  and  _57
REMARK   23  A    between atoms: _57  and  _58
REMARK   24  A    between atoms: _57  and  _60
REMARK   25  A    between atoms: _60  and  _61
REMARK   26  A    between atoms: _64  and  _66
REMARK   27  A    between atoms: _66  and  _67
REMARK   28  A    between atoms: _66  and  _69
REMARK   29  A    between atoms: _69  and  _70
REMARK   30  A    between atoms: _70  and  _71
REMARK   31  A    between atoms: _73  and  _75
REMARK   32  A    between atoms: _75  and  _76
REMARK   33  A    between atoms: _75  and  _78
REMARK   34  A    between atoms: _78  and  _79
REMARK   35  A    between atoms: _84  and  _86
REMARK   36  A    between atoms: _86  and  _87
REMARK   37  A    between atoms: _86  and  _89
REMARK   38  A    between atoms: _89  and  _90
REMARK   39  A    between atoms: _95  and  _97
REMARK   40  A    between atoms: _97  and  _98
REMARK   41  A    between atoms: _97  and  _100
REMARK   42  A    between atoms: _100  and  _101
REMARK   43  A    between atoms: _101  and  _102
REMARK   44  A    between atoms: _102  and  _103
REMARK   45  A    between atoms: _112  and  _114
REMARK   46  A    between atoms: _114  and  _115
REMARK   47  A    between atoms: _114  and  _117
REMARK   48  A    between atoms: _117  and  _118
REMARK   49  A    between atoms: _123  and  _125
REMARK   50  A    between atoms: _125  and  _126
REMARK   51  A    between atoms: _125  and  _128
REMARK   52  A    between atoms: _128  and  _129
REMARK   53  A    between atoms: _129  and  _130
REMARK   54  A    between atoms: _133  and  _135
REMARK   55  A    between atoms: _135  and  _136
REMARK   56  A    between atoms: _135  and  _138
REMARK   57  A    between atoms: _138  and  _139
REMARK   58  A    between atoms: _140  and  MG_451
REMARK   59  A    between atoms: _144  and  _146
REMARK   60  A    between atoms: _146  and  _147
REMARK   61  A    between atoms: _146  and  _149
REMARK   62  A    between atoms: _149  and  _150
REMARK   63  A    between atoms: _150  and  _151
REMARK   64  A    between atoms: _153  and  _155
REMARK   65  A    between atoms: _155  and  _156
REMARK   66  A    between atoms: _155  and  _158
REMARK   67  A    between atoms: _158  and  _159
REMARK   68  A    between atoms: _164  and  _166
REMARK   69  A    between atoms: _166  and  _167
REMARK   70  A    between atoms: _166  and  _169
REMARK   71  A    between atoms: _169  and  _170
REMARK   72  A    between atoms: _170  and  _171
REMARK   73  A    between atoms: _174  and  _176
REMARK   74  A    between atoms: _176  and  _177
REMARK   75  A    between atoms: _176  and  _179
REMARK   76  A    between atoms: _179  and  _180
REMARK   77  A    between atoms: _180  and  _181
REMARK   78  A    between atoms: _184  and  _186
REMARK   79  A    between atoms: _186  and  _187
REMARK   80  A    between atoms: _186  and  _189
REMARK   81  A    between atoms: _189  and  _190
REMARK   82  A    between atoms: _190  and  _191
REMARK   83  A    between atoms: _193  and  _195
REMARK   84  A    between atoms: _195  and  _196
REMARK   85  A    between atoms: _195  and  _198
REMARK   86  A    between atoms: _198  and  _199
REMARK   87  A    between atoms: _204  and  _205
REMARK   88  A    between atoms: _207  and  _209
REMARK   89  A    between atoms: _209  and  _210
REMARK   90  A    between atoms: _209  and  _212
REMARK   91  A    between atoms: _212  and  _213
REMARK   92  A    between atoms: _213  and  _214
REMARK   93  A    between atoms: _214  and  _215
REMARK   94  A    between atoms: _215  and  _216
REMARK   95  A    between atoms: _220  and  _222
REMARK   96  A    between atoms: _222  and  _223
REMARK   97  A    between atoms: _222  and  _225
REMARK   98  A    between atoms: _227  and  _229
REMARK   99  A    between atoms: _229  and  _230
REMARK  100  A    between atoms: _229  and  _232
REMARK  101  A    between atoms: _232  and  _233
REMARK  102  A    between atoms: _233  and  _234
REMARK  103  A    between atoms: _237  and  _239
REMARK  104  A    between atoms: _239  and  _240
REMARK  105  A    between atoms: _239  and  _242
REMARK  106  A    between atoms: _242  and  _243
REMARK  107  A    between atoms: _248  and  _250
REMARK  108  A    between atoms: _250  and  _251
REMARK  109  A    between atoms: _254  and  _256
REMARK  110  A    between atoms: _256  and  _257
REMARK  111  A    between atoms: _256  and  _259
REMARK  112  A    between atoms: _259  and  _260
REMARK  113  A    between atoms: _260  and  _261
REMARK  114  A    between atoms: _263  and  _265
REMARK  115  A    between atoms: _265  and  _266
REMARK  116  A    between atoms: _265  and  _268
REMARK  117  A    between atoms: _268  and  _269
REMARK  118  A    between atoms: _279  and  _281
REMARK  119  A    between atoms: _281  and  _282
REMARK  120  A    between atoms: _281  and  _284
REMARK  121  A    between atoms: _284  and  _285
REMARK  122  A    between atoms: _288  and  _290
REMARK  123  A    between atoms: _290  and  _291
REMARK  124  A    between atoms: _290  and  _293
REMARK  125  A    between atoms: _293  and  _294
REMARK  126  A    between atoms: _294  and  _295
REMARK  127  A    between atoms: _300  and  _302
REMARK  128  A    between atoms: _302  and  _303
REMARK  129  A    between atoms: _302  and  _305
REMARK  130  A    between atoms: _305  and  _306
REMARK  131  A    between atoms: _309  and  _311
REMARK  132  A    between atoms: _311  and  _312
REMARK  133  A    between atoms: _311  and  _314
REMARK  134  A    between atoms: _314  and  _315
REMARK  135  A    between atoms: _315  and  _316
REMARK  136  A    between atoms: _321  and  _323
REMARK  137  A    between atoms: _323  and  _324
REMARK  138  A    between atoms: _323  and  _326
REMARK  139  A    between atoms: _326  and  _327
REMARK  140  A    between atoms: _333  and  _335
REMARK  141  A    between atoms: _335  and  _336
REMARK  142  A    between atoms: _335  and  _338
REMARK  143  A    between atoms: _340  and  _342
REMARK  144  A    between atoms: _342  and  _343
REMARK  145  A    between atoms: _342  and  _345
REMARK  146  A    between atoms: _345  and  _346
REMARK  147  A    between atoms: _346  and  _347
REMARK  148  A    between atoms: _349  and  _351
REMARK  149  A    between atoms: _351  and  _352
REMARK  150  A    between atoms: _351  and  _354
REMARK  151  A    between atoms: _354  and  _355
REMARK  152  A    between atoms: _360  and  _362
REMARK  153  A    between atoms: _362  and  _363
REMARK  154  A    between atoms: _365  and  _367
REMARK  155  A    between atoms: _367  and  _368
REMARK  156  A    between atoms: _367  and  _370
REMARK  157  A    between atoms: _373  and  _375
REMARK  158  A    between atoms: _375  and  _376
REMARK  159  A    between atoms: _375  and  _378
REMARK  160  A    between atoms: _378  and  _379
REMARK  161  A    between atoms: _379  and  _380
REMARK  162  A    between atoms: _383  and  _385
REMARK  163  A    between atoms: _385  and  _386
REMARK  164  A    between atoms: _385  and  _388
REMARK  165  A    between atoms: _388  and  _389
REMARK  166  A    between atoms: _392  and  _394
REMARK  167  A    between atoms: _394  and  _395
REMARK  168  A    between atoms: _394  and  _397
REMARK  169  A    between atoms: _397  and  _398
REMARK  170  A    between atoms: _400  and  _402
REMARK  171  A    between atoms: _402  and  _403
REMARK  172  A    between atoms: _402  and  _405
REMARK  173  A    between atoms: _405  and  _406
REMARK  174  A    between atoms: _416  and  _418
REMARK  175  A    between atoms: _418  and  _419
REMARK  176  A    between atoms: _418  and  _421
REMARK  177  A    between atoms: _421  and  _422
REMARK  178  A    between atoms: _424  and  _426
REMARK  179  A    between atoms: _426  and  _427
REMARK  180  A    between atoms: _426  and  _429
REMARK  181  A    between atoms: _429  and  _430
REMARK  182  A    between atoms: _430  and  _431
REMARK  183  A    between atoms: _434  and  _436
REMARK  184  A    between atoms: _436  and  _437
REMARK  185  A    between atoms: _436  and  _439
REMARK  186  A    between atoms: _439  and  _440
REMARK  187  A    between atoms: _440  and  _441
REMARK  188  A    between atoms: _441  and  _442
REMARK                            x       y       z     vdW  Elec       q    Type
REMARK                         _______ _______ _______ _____ _____    ______ ____
ROOT
ATOM      1  C   GLY A   1     -22.713 -28.172 -33.160  0.00  0.00    +0.240 C 
ATOM      2  N   VAL A   2     -23.588 -28.354 -32.161  0.00  0.00    -0.298 N 
ATOM      3  H   VAL A   2     -24.268 -27.595 -31.956  0.00  0.00    +0.150 HD
ATOM      4  O   GLY A   1     -21.967 -29.064 -33.581  0.00  0.00    -0.274 OA
ENDROOT
BRANCH   1   5
ATOM      5  CA  GLY A   1     -22.674 -26.779 -33.785  0.00  0.00    +0.169 C 
BRANCH   5   6
ATOM      6  N   GLY A   1     -22.643 -26.748 -35.251  0.00  0.00    -0.236 NA
ATOM      7  H   GLY A   1     -21.757 -26.502 -35.736  0.00  0.00    +0.142 HD
ENDBRANCH   5   6
ENDBRANCH   1   5
BRANCH   2   8
ATOM      8  CA  VAL A   2     -23.635 -29.582 -31.334  0.00  0.00    +0.137 C 
BRANCH   8   9
ATOM      9  CB  VAL A   2     -22.776 -29.451 -30.028  0.00  0.00    +0.026 C 
ATOM     10  CG2 VAL A   2     -23.231 -28.267 -29.166  0.00  0.00    +0.002 C 
ATOM     11  CG1 VAL A   2     -21.284 -29.371 -30.340  0.00  0.00    +0.002 C 
ENDBRANCH   8   9
BRANCH   8  12
ATOM     12  C   VAL A   2     -25.050 -30.016 -30.912  0.00  0.00    +0.227 C 
ATOM     13  O   VAL A   2     -25.973 -29.203 -30.889  0.00  0.00    -0.286 OA
ENDBRANCH   8  12
ENDBRANCH   2   8
TORSDOF 5
REMARK  Name = ../refined-set-2016/3t08/3t08_pocket.pdb
REMARK  188 active torsions:
REMARK  status: ('A' for Active; 'I' for Inactive)
REMARK    1  A    between atoms: _1  and  _3
REMARK    2  A    between atoms: _3  and  _4
REMARK    3  A    between atoms: _3  and  _6
REMARK    4  A    between atoms: _6  and  _7
REMARK    5  A    between atoms: _12  and  _13
REMARK    6  A    between atoms: _15  and  _17
REMARK    7  A    between atoms: _17  and  _18
REMARK    8  A    between atoms: _17  and  _20
REMARK    9  A    between atoms: _20  and  _21
REMARK   10  A    between atoms: _26  and  _28
REMARK   11  A    between atoms: _28  and  _29
REMARK   12  A    between atoms: _28  and  _31
REMARK   13  A    between atoms: _34  and  _36
REMARK   14  A    between atoms: _36  and  _37
REMARK   15  A    between atoms: _36  and  _39
REMARK   16  A    between atoms: _39  and  _40
REMARK   17  A    between atoms: _43  and  _45
REMARK   18  A    between atoms: _45  and  _46
REMARK   19  A    between atoms: _45  and  _48
REMARK   20  A    between atoms: _48  and  _49
REMARK   21  A    between atoms: _49  and  _50
REMARK   22  A    between atoms: _55  and  _57
REMARK   23  A    between atoms: _57  and  _58
REMARK   24  A    between atoms: _57  and  _60
REMARK   25  A    between atoms: _60  and  _61
REMARK   26  A    between atoms: _64  and  _66
REMARK   27  A    between atoms: _66  and  _67
REMARK   28  A    between atoms: _66  and  _69
REMARK   29  A    between atoms: _69  and  _70
REMARK   30  A    between atoms: _70  and  _71
REMARK   31  A    between atoms: _73  and  _75
REMARK   32  A    between atoms: _75  and  _76
REMARK   33  A    between atoms: _75  and  _78
REMARK   34  A    between atoms: _78  and  _79
REMARK   35  A    between atoms: _84  and  _86
REMARK   36  A    between atoms: _86  and  _87
REMARK   37  A    between atoms: _86  and  _89
REMARK   38  A    between atoms: _89  and  _90
REMARK   39  A    between atoms: _95  and  _97
REMARK   40  A    between atoms: _97  and  _98
REMARK   41  A    between atoms: _97  and  _100
REMARK   42  A    between atoms: _100  and  _101
REMARK   43  A    between atoms: _101  and  _102
REMARK   44  A    between atoms: _102  and  _103
REMARK   45  A    between atoms: _112  and  _114
REMARK   46  A    between atoms: _114  and  _115
REMARK   47  A    between atoms: _114  and  _117
REMARK   48  A    between atoms: _117  and  _118
REMARK   49  A    between atoms: _123  and  _125
REMARK   50  A    between atoms: _125  and  _126
REMARK   51  A    between atoms: _125  and  _128
REMARK   52  A    between atoms: _128  and  _129
REMARK   53  A    between atoms: _129  and  _130
REMARK   54  A    between atoms: _133  and  _135
REMARK   55  A    between atoms: _135  and  _136
REMARK   56  A    between atoms: _135  and  _138
REMARK   57  A    between atoms: _138  and  _139
REMARK   58  A    between atoms: _140  and  MG_451
REMARK   59  A    between atoms: _144  and  _146
REMARK   60  A    between atoms: _146  and  _147
REMARK   61  A    between atoms: _146  and  _149
REMARK   62  A    between atoms: _149  and  _150
REMARK   63  A    between atoms: _150  and  _151
REMARK   64  A    between atoms: _153  and  _155
REMARK   65  A    between atoms: _155  and  _156
REMARK   66  A    between atoms: _155  and  _158
REMARK   67  A    between atoms: _158  and  _159
REMARK   68  A    between atoms: _164  and  _166
REMARK   69  A    between atoms: _166  and  _167
REMARK   70  A    between atoms: _166  and  _169
REMARK   71  A    between atoms: _169  and  _170
REMARK   72  A    between atoms: _170  and  _171
REMARK   73  A    between atoms: _174  and  _176
REMARK   74  A    between atoms: _176  and  _177
REMARK   75  A    between atoms: _176  and  _179
REMARK   76  A    between atoms: _179  and  _180
REMARK   77  A    between atoms: _180  and  _181
REMARK   78  A    between atoms: _184  and  _186
REMARK   79  A    between atoms: _186  and  _187
REMARK   80  A    between atoms: _186  and  _189
REMARK   81  A    between atoms: _189  and  _190
REMARK   82  A    between atoms: _190  and  _191
REMARK   83  A    between atoms: _193  and  _195
REMARK   84  A    between atoms: _195  and  _196
REMARK   85  A    between atoms: _195  and  _198
REMARK   86  A    between atoms: _198  and  _199
REMARK   87  A    between atoms: _204  and  _205
REMARK   88  A    between atoms: _207  and  _209
REMARK   89  A    between atoms: _209  and  _210
REMARK   90  A    between atoms: _209  and  _212
REMARK   91  A    between atoms: _212  and  _213
REMARK   92  A    between atoms: _213  and  _214
REMARK   93  A    between atoms: _214  and  _215
REMARK   94  A    between atoms: _215  and  _216
REMARK   95  A    between atoms: _220  and  _222
REMARK   96  A    between atoms: _222  and  _223
REMARK   97  A    between atoms: _222  and  _225
REMARK   98  A    between atoms: _227  and  _229
REMARK   99  A    between atoms: _229  and  _230
REMARK  100  A    between atoms: _229  and  _232
REMARK  101  A    between atoms: _232  and  _233
REMARK  102  A    between atoms: _233  and  _234
REMARK  103  A    between atoms: _237  and  _239
REMARK  104  A    between atoms: _239  and  _240
REMARK  105  A    between atoms: _239  and  _242
REMARK  106  A    between atoms: _242  and  _243
REMARK  107  A    between atoms: _248  and  _250
REMARK  108  A    between atoms: _250  and  _251
REMARK  109  A    between atoms: _254  and  _256
REMARK  110  A    between atoms: _256  and  _257
REMARK  111  A    between atoms: _256  and  _259
REMARK  112  A    between atoms: _259  and  _260
REMARK  113  A    between atoms: _260  and  _261
REMARK  114  A    between atoms: _263  and  _265
REMARK  115  A    between atoms: _265  and  _266
REMARK  116  A    between atoms: _265  and  _268
REMARK  117  A    between atoms: _268  and  _269
REMARK  118  A    between atoms: _279  and  _281
REMARK  119  A    between atoms: _281  and  _282
REMARK  120  A    between atoms: _281  and  _284
REMARK  121  A    between atoms: _284  and  _285
REMARK  122  A    between atoms: _288  and  _290
REMARK  123  A    between atoms: _290  and  _291
REMARK  124  A    between atoms: _290  and  _293
REMARK  125  A    between atoms: _293  and  _294
REMARK  126  A    between atoms: _294  and  _295
REMARK  127  A    between atoms: _300  and  _302
REMARK  128  A    between atoms: _302  and  _303
REMARK  129  A    between atoms: _302  and  _305
REMARK  130  A    between atoms: _305  and  _306
REMARK  131  A    between atoms: _309  and  _311
REMARK  132  A    between atoms: _311  and  _312
REMARK  133  A    between atoms: _311  and  _314
REMARK  134  A    between atoms: _314  and  _315
REMARK  135  A    between atoms: _315  and  _316
REMARK  136  A    between atoms: _321  and  _323
REMARK  137  A    between atoms: _323  and  _324
REMARK  138  A    between atoms: _323  and  _326
REMARK  139  A    between atoms: _326  and  _327
REMARK  140  A    between atoms: _333  and  _335
REMARK  141  A    between atoms: _335  and  _336
REMARK  142  A    between atoms: _335  and  _338
REMARK  143  A    between atoms: _340  and  _342
REMARK  144  A    between atoms: _342  and  _343
REMARK  145  A    between atoms: _342  and  _345
REMARK  146  A    between atoms: _345  and  _346
REMARK  147  A    between atoms: _346  and  _347
REMARK  148  A    between atoms: _349  and  _351
REMARK  149  A    between atoms: _351  and  _352
REMARK  150  A    between atoms: _351  and  _354
REMARK  151  A    between atoms: _354  and  _355
REMARK  152  A    between atoms: _360  and  _362
REMARK  153  A    between atoms: _362  and  _363
REMARK  154  A    between atoms: _365  and  _367
REMARK  155  A    between atoms: _367  and  _368
REMARK  156  A    between atoms: _367  and  _370
REMARK  157  A    between atoms: _373  and  _375
REMARK  158  A    between atoms: _375  and  _376
REMARK  159  A    between atoms: _375  and  _378
REMARK  160  A    between atoms: _378  and  _379
REMARK  161  A    between atoms: _379  and  _380
REMARK  162  A    between atoms: _383  and  _385
REMARK  163  A    between atoms: _385  and  _386
REMARK  164  A    between atoms: _385  and  _388
REMARK  165  A    between atoms: _388  and  _389
REMARK  166  A    between atoms: _392  and  _394
REMARK  167  A    between atoms: _394  and  _395
REMARK  168  A    between atoms: _394  and  _397
REMARK  169  A    between atoms: _397  and  _398
REMARK  170  A    between atoms: _400  and  _402
REMARK  171  A    between atoms: _402  and  _403
REMARK  172  A    between atoms: _402  and  _405
REMARK  173  A    between atoms: _405  and  _406
REMARK  174  A    between atoms: _416  and  _418
REMARK  175  A    between atoms: _418  and  _419
REMARK  176  A    between atoms: _418  and  _421
REMARK  177  A    between atoms: _421  and  _422
REMARK  178  A    between atoms: _424  and  _426
REMARK  179  A    between atoms: _426  and  _427
REMARK  180  A    between atoms: _426  and  _429
REMARK  181  A    between atoms: _429  and  _430
REMARK  182  A    between atoms: _430  and  _431
REMARK  183  A    between atoms: _434  and  _436
REMARK  184  A    between atoms: _436  and  _437
REMARK  185  A    between atoms: _436  and  _439
REMARK  186  A    between atoms: _439  and  _440
REMARK  187  A    between atoms: _440  and  _441
REMARK  188  A    between atoms: _441  and  _442
REMARK                            x       y       z     vdW  Elec       q    Type
REMARK                         _______ _______ _______ _____ _____    ______ ____
ROOT
ATOM      1  CA  GLU A   1     -27.959 -31.092 -26.556  0.00  0.00    +0.134 C 
ENDROOT
BRANCH   1   2
ATOM      2  N   GLU A   1     -27.738 -31.351 -27.988  0.00  0.00    -0.239 NA
ATOM      3  H   GLU A   1     -28.551 -31.310 -28.635  0.00  0.00    +0.142 HD
ENDBRANCH   1   2
BRANCH   1   4
ATOM      4  C   GLU A   1     -29.156 -31.872 -25.985  0.00  0.00    +0.224 C 
ATOM      5  O   GLU A   1     -30.190 -31.283 -25.651  0.00  0.00    -0.287 OA
ENDBRANCH   1   4
BRANCH   1   6
ATOM      6  CB  GLU A   1     -28.125 -29.588 -26.295  0.00  0.00    +0.037 C 
BRANCH   6   7
ATOM      7  CG  GLU A   1     -26.832 -28.776 -26.373  0.00  0.00    +0.116 C 
BRANCH   7   8
ATOM      8  CD  GLU A   1     -27.074 -27.271 -26.441  0.00  0.00    +0.365 C 
ATOM      9  OE2 GLU A   1     -26.128 -26.506 -26.155  0.00  0.00    -0.246 OA
ATOM     10  OE1 GLU A   1     -28.200 -26.851 -26.787  0.00  0.00    -0.246 OA
ENDBRANCH   7   8
ENDBRANCH   6   7
ENDBRANCH   1   6
TORSDOF 5
REMARK  Name = ../refined-set-2016/3t08/3t08_pocket.pdb
REMARK  188 active torsions:
REMARK  status: ('A' for Active; 'I' for Inactive)
REMARK    1  A    between atoms: _1  and  _3
REMARK    2  A    between atoms: _3  and  _4
REMARK    3  A    between atoms: _3  and  _6
REMARK    4  A    between atoms: _6  and  _7
REMARK    5  A    between atoms: _12  and  _13
REMARK    6  A    between atoms: _15  and  _17
REMARK    7  A    between atoms: _17  and  _18
REMARK    8  A    between atoms: _17  and  _20
REMARK    9  A    between atoms: _20  and  _21
REMARK   10  A    between atoms: _26  and  _28
REMARK   11  A    between atoms: _28  and  _29
REMARK   12  A    between atoms: _28  and  _31
REMARK   13  A    between atoms: _34  and  _36
REMARK   14  A    between atoms: _36  and  _37
REMARK   15  A    between atoms: _36  and  _39
REMARK   16  A    between atoms: _39  and  _40
REMARK   17  A    between atoms: _43  and  _45
REMARK   18  A    between atoms: _45  and  _46
REMARK   19  A    between atoms: _45  and  _48
REMARK   20  A    between atoms: _48  and  _49
REMARK   21  A    between atoms: _49  and  _50
REMARK   22  A    between atoms: _55  and  _57
REMARK   23  A    between atoms: _57  and  _58
REMARK   24  A    between atoms: _57  and  _60
REMARK   25  A    between atoms: _60  and  _61
REMARK   26  A    between atoms: _64  and  _66
REMARK   27  A    between atoms: _66  and  _67
REMARK   28  A    between atoms: _66  and  _69
REMARK   29  A    between atoms: _69  and  _70
REMARK   30  A    between atoms: _70  and  _71
REMARK   31  A    between atoms: _73  and  _75
REMARK   32  A    between atoms: _75  and  _76
REMARK   33  A    between atoms: _75  and  _78
REMARK   34  A    between atoms: _78  and  _79
REMARK   35  A    between atoms: _84  and  _86
REMARK   36  A    between atoms: _86  and  _87
REMARK   37  A    between atoms: _86  and  _89
REMARK   38  A    between atoms: _89  and  _90
REMARK   39  A    between atoms: _95  and  _97
REMARK   40  A    between atoms: _97  and  _98
REMARK   41  A    between atoms: _97  and  _100
REMARK   42  A    between atoms: _100  and  _101
REMARK   43  A    between atoms: _101  and  _102
REMARK   44  A    between atoms: _102  and  _103
REMARK   45  A    between atoms: _112  and  _114
REMARK   46  A    between atoms: _114  and  _115
REMARK   47  A    between atoms: _114  and  _117
REMARK   48  A    between atoms: _117  and  _118
REMARK   49  A    between atoms: _123  and  _125
REMARK   50  A    between atoms: _125  and  _126
REMARK   51  A    between atoms: _125  and  _128
REMARK   52  A    between atoms: _128  and  _129
REMARK   53  A    between atoms: _129  and  _130
REMARK   54  A    between atoms: _133  and  _135
REMARK   55  A    between atoms: _135  and  _136
REMARK   56  A    between atoms: _135  and  _138
REMARK   57  A    between atoms: _138  and  _139
REMARK   58  A    between atoms: _140  and  MG_451
REMARK   59  A    between atoms: _144  and  _146
REMARK   60  A    between atoms: _146  and  _147
REMARK   61  A    between atoms: _146  and  _149
REMARK   62  A    between atoms: _149  and  _150
REMARK   63  A    between atoms: _150  and  _151
REMARK   64  A    between atoms: _153  and  _155
REMARK   65  A    between atoms: _155  and  _156
REMARK   66  A    between atoms: _155  and  _158
REMARK   67  A    between atoms: _158  and  _159
REMARK   68  A    between atoms: _164  and  _166
REMARK   69  A    between atoms: _166  and  _167
REMARK   70  A    between atoms: _166  and  _169
REMARK   71  A    between atoms: _169  and  _170
REMARK   72  A    between atoms: _170  and  _171
REMARK   73  A    between atoms: _174  and  _176
REMARK   74  A    between atoms: _176  and  _177
REMARK   75  A    between atoms: _176  and  _179
REMARK   76  A    between atoms: _179  and  _180
REMARK   77  A    between atoms: _180  and  _181
REMARK   78  A    between atoms: _184  and  _186
REMARK   79  A    between atoms: _186  and  _187
REMARK   80  A    between atoms: _186  and  _189
REMARK   81  A    between atoms: _189  and  _190
REMARK   82  A    between atoms: _190  and  _191
REMARK   83  A    between atoms: _193  and  _195
REMARK   84  A    between atoms: _195  and  _196
REMARK   85  A    between atoms: _195  and  _198
REMARK   86  A    between atoms: _198  and  _199
REMARK   87  A    between atoms: _204  and  _205
REMARK   88  A    between atoms: _207  and  _209
REMARK   89  A    between atoms: _209  and  _210
REMARK   90  A    between atoms: _209  and  _212
REMARK   91  A    between atoms: _212  and  _213
REMARK   92  A    between atoms: _213  and  _214
REMARK   93  A    between atoms: _214  and  _215
REMARK   94  A    between atoms: _215  and  _216
REMARK   95  A    between atoms: _220  and  _222
REMARK   96  A    between atoms: _222  and  _223
REMARK   97  A    between atoms: _222  and  _225
REMARK   98  A    between atoms: _227  and  _229
REMARK   99  A    between atoms: _229  and  _230
REMARK  100  A    between atoms: _229  and  _232
REMARK  101  A    between atoms: _232  and  _233
REMARK  102  A    between atoms: _233  and  _234
REMARK  103  A    between atoms: _237  and  _239
REMARK  104  A    between atoms: _239  and  _240
REMARK  105  A    between atoms: _239  and  _242
REMARK  106  A    between atoms: _242  and  _243
REMARK  107  A    between atoms: _248  and  _250
REMARK  108  A    between atoms: _250  and  _251
REMARK  109  A    between atoms: _254  and  _256
REMARK  110  A    between atoms: _256  and  _257
REMARK  111  A    between atoms: _256  and  _259
REMARK  112  A    between atoms: _259  and  _260
REMARK  113  A    between atoms: _260  and  _261
REMARK  114  A    between atoms: _263  and  _265
REMARK  115  A    between atoms: _265  and  _266
REMARK  116  A    between atoms: _265  and  _268
REMARK  117  A    between atoms: _268  and  _269
REMARK  118  A    between atoms: _279  and  _281
REMARK  119  A    between atoms: _281  and  _282
REMARK  120  A    between atoms: _281  and  _284
REMARK  121  A    between atoms: _284  and  _285
REMARK  122  A    between atoms: _288  and  _290
REMARK  123  A    between atoms: _290  and  _291
REMARK  124  A    between atoms: _290  and  _293
REMARK  125  A    between atoms: _293  and  _294
REMARK  126  A    between atoms: _294  and  _295
REMARK  127  A    between atoms: _300  and  _302
REMARK  128  A    between atoms: _302  and  _303
REMARK  129  A    between atoms: _302  and  _305
REMARK  130  A    between atoms: _305  and  _306
REMARK  131  A    between atoms: _309  and  _311
REMARK  132  A    between atoms: _311  and  _312
REMARK  133  A    between atoms: _311  and  _314
REMARK  134  A    between atoms: _314  and  _315
REMARK  135  A    between atoms: _315  and  _316
REMARK  136  A    between atoms: _321  and  _323
REMARK  137  A    between atoms: _323  and  _324
REMARK  138  A    between atoms: _323  and  _326
REMARK  139  A    between atoms: _326  and  _327
REMARK  140  A    between atoms: _333  and  _335
REMARK  141  A    between atoms: _335  and  _336
REMARK  142  A    between atoms: _335  and  _338
REMARK  143  A    between atoms: _340  and  _342
REMARK  144  A    between atoms: _342  and  _343
REMARK  145  A    between atoms: _342  and  _345
REMARK  146  A    between atoms: _345  and  _346
REMARK  147  A    between atoms: _346  and  _347
REMARK  148  A    between atoms: _349  and  _351
REMARK  149  A    between atoms: _351  and  _352
REMARK  150  A    between atoms: _351  and  _354
REMARK  151  A    between atoms: _354  and  _355
REMARK  152  A    between atoms: _360  and  _362
REMARK  153  A    between atoms: _362  and  _363
REMARK  154  A    between atoms: _365  and  _367
REMARK  155  A    between atoms: _367  and  _368
REMARK  156  A    between atoms: _367  and  _370
REMARK  157  A    between atoms: _373  and  _375
REMARK  158  A    between atoms: _375  and  _376
REMARK  159  A    between atoms: _375  and  _378
REMARK  160  A    between atoms: _378  and  _379
REMARK  161  A    between atoms: _379  and  _380
REMARK  162  A    between atoms: _383  and  _385
REMARK  163  A    between atoms: _385  and  _386
REMARK  164  A    between atoms: _385  and  _388
REMARK  165  A    between atoms: _388  and  _389
REMARK  166  A    between atoms: _392  and  _394
REMARK  167  A    between atoms: _394  and  _395
REMARK  168  A    between atoms: _394  and  _397
REMARK  169  A    between atoms: _397  and  _398
REMARK  170  A    between atoms: _400  and  _402
REMARK  171  A    between atoms: _402  and  _403
REMARK  172  A    between atoms: _402  and  _405
REMARK  173  A    between atoms: _405  and  _406
REMARK  174  A    between atoms: _416  and  _418
REMARK  175  A    between atoms: _418  and  _419
REMARK  176  A    between atoms: _418  and  _421
REMARK  177  A    between atoms: _421  and  _422
REMARK  178  A    between atoms: _424  and  _426
REMARK  179  A    between atoms: _426  and  _427
REMARK  180  A    between atoms: _426  and  _429
REMARK  181  A    between atoms: _429  and  _430
REMARK  182  A    between atoms: _430  and  _431
REMARK  183  A    between atoms: _434  and  _436
REMARK  184  A    between atoms: _436  and  _437
REMARK  185  A    between atoms: _436  and  _439
REMARK  186  A    between atoms: _439  and  _440
REMARK  187  A    between atoms: _440  and  _441
REMARK  188  A    between atoms: _441  and  _442
REMARK                            x       y       z     vdW  Elec       q    Type
REMARK                         _______ _______ _______ _____ _____    ______ ____
ROOT
ATOM      1  CA  TRP A   3     -20.287 -25.069 -31.021  0.00  0.00    +0.153 C 
ENDROOT
BRANCH   1   3
ATOM      2  C   SER A   2     -18.629 -24.917 -32.803  0.00  0.00    +0.243 C 
ATOM      3  N   TRP A   3     -19.154 -24.414 -31.688  0.00  0.00    -0.297 N 
ATOM      4  H   TRP A   3     -18.756 -23.543 -31.283  0.00  0.00    +0.150 HD
ATOM      5  O   SER A   2     -19.063 -25.941 -33.327  0.00  0.00    -0.273 OA
BRANCH   2   6
ATOM      6  CA  SER A   2     -17.443 -24.163 -33.427  0.00  0.00    +0.178 C 
BRANCH   6   8
ATOM      7  C   ASP A   1     -16.551 -22.033 -32.608  0.00  0.00    +0.239 C 
ATOM      8  N   SER A   2     -16.705 -23.346 -32.454  0.00  0.00    -0.295 N 
ATOM      9  H   SER A   2     -16.290 -23.808 -31.619  0.00  0.00    +0.150 HD
ATOM     10  O   ASP A   1     -17.050 -21.402 -33.545  0.00  0.00    -0.274 OA
BRANCH   7  11
ATOM     11  CA  ASP A   1     -15.704 -21.306 -31.567  0.00  0.00    +0.156 C 
BRANCH  11  12
ATOM     12  N   ASP A   1     -15.623 -19.905 -31.973  0.00  0.00    -0.238 NA
ATOM     13  H   ASP A   1     -16.432 -19.485 -32.475  0.00  0.00    +0.142 HD
ENDBRANCH  11  12
BRANCH  11  14
ATOM     14  CB  ASP A   1     -16.266 -21.465 -30.144  0.00  0.00    +0.140 C 
BRANCH  14  15
ATOM     15  CG  ASP A   1     -17.660 -20.893 -29.992  0.00  0.00    +0.367 C 
ATOM     16  OD2 ASP A   1     -17.794 -19.857 -29.315  0.00  0.00    -0.246 OA
ATOM     17  OD1 ASP A   1     -18.624 -21.486 -30.520  0.00  0.00    -0.246 OA
ENDBRANCH  14  15
ENDBRANCH  11  14
ENDBRANCH   7  11
ENDBRANCH   6   8
BRANCH   6  18
ATOM     18  CB  SER A   2     -16.489 -25.147 -34.123  0.00  0.00    +0.166 C 
BRANCH  18  19
ATOM     19  OG  SER A   2     -15.380 -24.472 -34.706  0.00  0.00    -0.380 OA
ATOM     20  H   SER A   2     -15.707 -23.822 -35.378  0.00  0.00    +0.211 HD
ENDBRANCH  18  19
ENDBRANCH   6  18
ENDBRANCH   2   6
ENDBRANCH   1   3
BRANCH   1  21
ATOM     21  C   TRP A   3     -21.428 -24.104 -30.686  0.00  0.00    +0.241 C 
ATOM     22  O   TRP A   3     -22.363 -24.445 -29.953  0.00  0.00    -0.273 OA
ATOM     23  N   SER A   4     -21.342 -22.903 -31.246  0.00  0.00    -0.296 N 
ATOM     24  H   SER A   4     -20.510 -22.695 -31.834  0.00  0.00    +0.150 HD
BRANCH  23  25
ATOM     25  CA  SER A   4     -22.346 -21.860 -31.084  0.00  0.00    +0.166 C 
BRANCH  25  26
ATOM     26  C   SER A   4     -22.176 -20.909 -32.269  0.00  0.00    +0.229 C 
ATOM     27  O   SER A   4     -21.116 -20.906 -32.893  0.00  0.00    -0.286 OA
ENDBRANCH  25  26
BRANCH  25  28
ATOM     28  CB  SER A   4     -22.125 -21.104 -29.774  0.00  0.00    +0.165 C 
BRANCH  28  29
ATOM     29  OG  SER A   4     -20.968 -20.293 -29.865  0.00  0.00    -0.380 OA
ATOM     30  H   SER A   4     -20.837 -19.810 -29.011  0.00  0.00    +0.211 HD
ENDBRANCH  28  29
ENDBRANCH  25  28
ENDBRANCH  23  25
ENDBRANCH   1  21
BRANCH   1  31
ATOM     31  CB  TRP A   3     -19.816 -25.855 -29.784  0.00  0.00    +0.057 C 
BRANCH  31  32
ATOM     32  CG  TRP A   3     -18.848 -25.115 -28.899  0.00  0.00    -0.002 A 
ATOM     33  CD1 TRP A   3     -19.157 -24.365 -27.801  0.00  0.00    +0.068 A 
ATOM     34  NE1 TRP A   3     -18.016 -23.843 -27.247  0.00  0.00    -0.352 N 
ATOM     35  HE1 TRP A   3     -17.978 -23.238 -26.402  0.00  0.00    +0.166 HD
ATOM     36  CE2 TRP A   3     -16.935 -24.246 -27.984  0.00  0.00    +0.056 A 
ATOM     37  CZ2 TRP A   3     -15.568 -23.977 -27.808  0.00  0.00    +0.017 A 
ATOM     38  CH2 TRP A   3     -14.696 -24.512 -28.721  0.00  0.00    +0.001 A 
ATOM     39  CZ3 TRP A   3     -15.148 -25.312 -29.790  0.00  0.00    +0.000 A 
ATOM     40  CE3 TRP A   3     -16.506 -25.591 -29.956  0.00  0.00    +0.001 A 
ATOM     41  CD2 TRP A   3     -17.422 -25.047 -29.042  0.00  0.00    +0.013 A 
ENDBRANCH  31  32
ENDBRANCH   1  31
TORSDOF 16
REMARK  Name = ../refined-set-2016/3t08/3t08_pocket.pdb
REMARK  188 active torsions:
REMARK  status: ('A' for Active; 'I' for Inactive)
REMARK    1  A    between atoms: _1  and  _3
REMARK    2  A    between atoms: _3  and  _4
REMARK    3  A    between atoms: _3  and  _6
REMARK    4  A    between atoms: _6  and  _7
REMARK    5  A    between atoms: _12  and  _13
REMARK    6  A    between atoms: _15  and  _17
REMARK    7  A    between atoms: _17  and  _18
REMARK    8  A    between atoms: _17  and  _20
REMARK    9  A    between atoms: _20  and  _21
REMARK   10  A    between atoms: _26  and  _28
REMARK   11  A    between atoms: _28  and  _29
REMARK   12  A    between atoms: _28  and  _31
REMARK   13  A    between atoms: _34  and  _36
REMARK   14  A    between atoms: _36  and  _37
REMARK   15  A    between atoms: _36  and  _39
REMARK   16  A    between atoms: _39  and  _40
REMARK   17  A    between atoms: _43  and  _45
REMARK   18  A    between atoms: _45  and  _46
REMARK   19  A    between atoms: _45  and  _48
REMARK   20  A    between atoms: _48  and  _49
REMARK   21  A    between atoms: _49  and  _50
REMARK   22  A    between atoms: _55  and  _57
REMARK   23  A    between atoms: _57  and  _58
REMARK   24  A    between atoms: _57  and  _60
REMARK   25  A    between atoms: _60  and  _61
REMARK   26  A    between atoms: _64  and  _66
REMARK   27  A    between atoms: _66  and  _67
REMARK   28  A    between atoms: _66  and  _69
REMARK   29  A    between atoms: _69  and  _70
REMARK   30  A    between atoms: _70  and  _71
REMARK   31  A    between atoms: _73  and  _75
REMARK   32  A    between atoms: _75  and  _76
REMARK   33  A    between atoms: _75  and  _78
REMARK   34  A    between atoms: _78  and  _79
REMARK   35  A    between atoms: _84  and  _86
REMARK   36  A    between atoms: _86  and  _87
REMARK   37  A    between atoms: _86  and  _89
REMARK   38  A    between atoms: _89  and  _90
REMARK   39  A    between atoms: _95  and  _97
REMARK   40  A    between atoms: _97  and  _98
REMARK   41  A    between atoms: _97  and  _100
REMARK   42  A    between atoms: _100  and  _101
REMARK   43  A    between atoms: _101  and  _102
REMARK   44  A    between atoms: _102  and  _103
REMARK   45  A    between atoms: _112  and  _114
REMARK   46  A    between atoms: _114  and  _115
REMARK   47  A    between atoms: _114  and  _117
REMARK   48  A    between atoms: _117  and  _118
REMARK   49  A    between atoms: _123  and  _125
REMARK   50  A    between atoms: _125  and  _126
REMARK   51  A    between atoms: _125  and  _128
REMARK   52  A    between atoms: _128  and  _129
REMARK   53  A    between atoms: _129  and  _130
REMARK   54  A    between atoms: _133  and  _135
REMARK   55  A    between atoms: _135  and  _136
REMARK   56  A    between atoms: _135  and  _138
REMARK   57  A    between atoms: _138  and  _139
REMARK   58  A    between atoms: _140  and  MG_451
REMARK   59  A    between atoms: _144  and  _146
REMARK   60  A    between atoms: _146  and  _147
REMARK   61  A    between atoms: _146  and  _149
REMARK   62  A    between atoms: _149  and  _150
REMARK   63  A    between atoms: _150  and  _151
REMARK   64  A    between atoms: _153  and  _155
REMARK   65  A    between atoms: _155  and  _156
REMARK   66  A    between atoms: _155  and  _158
REMARK   67  A    between atoms: _158  and  _159
REMARK   68  A    between atoms: _164  and  _166
REMARK   69  A    between atoms: _166  and  _167
REMARK   70  A    between atoms: _166  and  _169
REMARK   71  A    between atoms: _169  and  _170
REMARK   72  A    between atoms: _170  and  _171
REMARK   73  A    between atoms: _174  and  _176
REMARK   74  A    between atoms: _176  and  _177
REMARK   75  A    between atoms: _176  and  _179
REMARK   76  A    between atoms: _179  and  _180
REMARK   77  A    between atoms: _180  and  _181
REMARK   78  A    between atoms: _184  and  _186
REMARK   79  A    between atoms: _186  and  _187
REMARK   80  A    between atoms: _186  and  _189
REMARK   81  A    between atoms: _189  and  _190
REMARK   82  A    between atoms: _190  and  _191
REMARK   83  A    between atoms: _193  and  _195
REMARK   84  A    between atoms: _195  and  _196
REMARK   85  A    between atoms: _195  and  _198
REMARK   86  A    between atoms: _198  and  _199
REMARK   87  A    between atoms: _204  and  _205
REMARK   88  A    between atoms: _207  and  _209
REMARK   89  A    between atoms: _209  and  _210
REMARK   90  A    between atoms: _209  and  _212
REMARK   91  A    between atoms: _212  and  _213
REMARK   92  A    between atoms: _213  and  _214
REMARK   93  A    between atoms: _214  and  _215
REMARK   94  A    between atoms: _215  and  _216
REMARK   95  A    between atoms: _220  and  _222
REMARK   96  A    between atoms: _222  and  _223
REMARK   97  A    between atoms: _222  and  _225
REMARK   98  A    between atoms: _227  and  _229
REMARK   99  A    between atoms: _229  and  _230
REMARK  100  A    between atoms: _229  and  _232
REMARK  101  A    between atoms: _232  and  _233
REMARK  102  A    between atoms: _233  and  _234
REMARK  103  A    between atoms: _237  and  _239
REMARK  104  A    between atoms: _239  and  _240
REMARK  105  A    between atoms: _239  and  _242
REMARK  106  A    between atoms: _242  and  _243
REMARK  107  A    between atoms: _248  and  _250
REMARK  108  A    between atoms: _250  and  _251
REMARK  109  A    between atoms: _254  and  _256
REMARK  110  A    between atoms: _256  and  _257
REMARK  111  A    between atoms: _256  and  _259
REMARK  112  A    between atoms: _259  and  _260
REMARK  113  A    between atoms: _260  and  _261
REMARK  114  A    between atoms: _263  and  _265
REMARK  115  A    between atoms: _265  and  _266
REMARK  116  A    between atoms: _265  and  _268
REMARK  117  A    between atoms: _268  and  _269
REMARK  118  A    between atoms: _279  and  _281
REMARK  119  A    between atoms: _281  and  _282
REMARK  120  A    between atoms: _281  and  _284
REMARK  121  A    between atoms: _284  and  _285
REMARK  122  A    between atoms: _288  and  _290
REMARK  123  A    between atoms: _290  and  _291
REMARK  124  A    between atoms: _290  and  _293
REMARK  125  A    between atoms: _293  and  _294
REMARK  126  A    between atoms: _294  and  _295
REMARK  127  A    between atoms: _300  and  _302
REMARK  128  A    between atoms: _302  and  _303
REMARK  129  A    between atoms: _302  and  _305
REMARK  130  A    between atoms: _305  and  _306
REMARK  131  A    between atoms: _309  and  _311
REMARK  132  A    between atoms: _311  and  _312
REMARK  133  A    between atoms: _311  and  _314
REMARK  134  A    between atoms: _314  and  _315
REMARK  135  A    between atoms: _315  and  _316
REMARK  136  A    between atoms: _321  and  _323
REMARK  137  A    between atoms: _323  and  _324
REMARK  138  A    between atoms: _323  and  _326
REMARK  139  A    between atoms: _326  and  _327
REMARK  140  A    between atoms: _333  and  _335
REMARK  141  A    between atoms: _335  and  _336
REMARK  142  A    between atoms: _335  and  _338
REMARK  143  A    between atoms: _340  and  _342
REMARK  144  A    between atoms: _342  and  _343
REMARK  145  A    between atoms: _342  and  _345
REMARK  146  A    between atoms: _345  and  _346
REMARK  147  A    between atoms: _346  and  _347
REMARK  148  A    between atoms: _349  and  _351
REMARK  149  A    between atoms: _351  and  _352
REMARK  150  A    between atoms: _351  and  _354
REMARK  151  A    between atoms: _354  and  _355
REMARK  152  A    between atoms: _360  and  _362
REMARK  153  A    between atoms: _362  and  _363
REMARK  154  A    between atoms: _365  and  _367
REMARK  155  A    between atoms: _367  and  _368
REMARK  156  A    between atoms: _367  and  _370
REMARK  157  A    between atoms: _373  and  _375
REMARK  158  A    between atoms: _375  and  _376
REMARK  159  A    between atoms: _375  and  _378
REMARK  160  A    between atoms: _378  and  _379
REMARK  161  A    between atoms: _379  and  _380
REMARK  162  A    between atoms: _383  and  _385
REMARK  163  A    between atoms: _385  and  _386
REMARK  164  A    between atoms: _385  and  _388
REMARK  165  A    between atoms: _388  and  _389
REMARK  166  A    between atoms: _392  and  _394
REMARK  167  A    between atoms: _394  and  _395
REMARK  168  A    between atoms: _394  and  _397
REMARK  169  A    between atoms: _397  and  _398
REMARK  170  A    between atoms: _400  and  _402
REMARK  171  A    between atoms: _402  and  _403
REMARK  172  A    between atoms: _402  and  _405
REMARK  173  A    between atoms: _405  and  _406
REMARK  174  A    between atoms: _416  and  _418
REMARK  175  A    between atoms: _418  and  _419
REMARK  176  A    between atoms: _418  and  _421
REMARK  177  A    between atoms: _421  and  _422
REMARK  178  A    between atoms: _424  and  _426
REMARK  179  A    between atoms: _426  and  _427
REMARK  180  A    between atoms: _426  and  _429
REMARK  181  A    between atoms: _429  and  _430
REMARK  182  A    between atoms: _430  and  _431
REMARK  183  A    between atoms: _434  and  _436
REMARK  184  A    between atoms: _436  and  _437
REMARK  185  A    between atoms: _436  and  _439
REMARK  186  A    between atoms: _439  and  _440
REMARK  187  A    between atoms: _440  and  _441
REMARK  188  A    between atoms: _441  and  _442
REMARK                            x       y       z     vdW  Elec       q    Type
REMARK                         _______ _______ _______ _____ _____    ______ ____
ROOT
ATOM      1  CA  ARG A   2     -20.394 -28.542 -16.357  0.00  0.00    +0.137 C 
ENDROOT
BRANCH   1   3
ATOM      2  C   GLU A   1     -19.987 -26.401 -17.490  0.00  0.00    +0.238 C 
ATOM      3  N   ARG A   2     -19.680 -27.261 -16.525  0.00  0.00    -0.298 N 
ATOM      4  H   ARG A   2     -18.911 -27.024 -15.866  0.00  0.00    +0.150 HD
ATOM      5  O   GLU A   1     -20.898 -26.599 -18.289  0.00  0.00    -0.274 OA
BRANCH   2   6
ATOM      6  CA  GLU A   1     -19.152 -25.115 -17.572  0.00  0.00    +0.145 C 
BRANCH   6   7
ATOM      7  N   GLU A   1     -18.533 -24.720 -16.304  0.00  0.00    -0.238 NA
ATOM      8  H   GLU A   1     -17.503 -24.576 -16.281  0.00  0.00    +0.142 HD
ENDBRANCH   6   7
BRANCH   6   9
ATOM      9  CB  GLU A   1     -18.080 -25.256 -18.659  0.00  0.00    +0.038 C 
BRANCH   9  10
ATOM     10  CG  GLU A   1     -17.359 -23.954 -19.018  0.00  0.00    +0.116 C 
BRANCH  10  11
ATOM     11  CD  GLU A   1     -16.223 -23.568 -18.055  0.00  0.00    +0.365 C 
ATOM     12  OE2 GLU A   1     -16.056 -24.187 -16.970  0.00  0.00    -0.246 OA
ATOM     13  OE1 GLU A   1     -15.487 -22.623 -18.399  0.00  0.00    -0.246 OA
ENDBRANCH  10  11
ENDBRANCH   9  10
ENDBRANCH   6   9
ENDBRANCH   2   6
ENDBRANCH   1   3
BRANCH   1  14
ATOM     14  C   ARG A   2     -21.531 -28.504 -15.331  0.00  0.00    +0.227 C 
ATOM     15  O   ARG A   2     -22.124 -29.541 -15.015  0.00  0.00    -0.286 OA
ENDBRANCH   1  14
BRANCH   1  16
ATOM     16  CB  ARG A   2     -19.405 -29.660 -15.996  0.00  0.00    +0.031 C 
BRANCH  16  17
ATOM     17  CG  ARG A   2     -18.332 -29.920 -17.043  0.00  0.00    +0.045 C 
BRANCH  17  18
ATOM     18  CD  ARG A   2     -18.893 -30.683 -18.228  0.00  0.00    +0.174 C 
BRANCH  18  19
ATOM     19  NE  ARG A   2     -19.097 -32.104 -17.922  0.00  0.00    -0.265 N 
ATOM     20  HE  ARG A   2     -18.594 -32.500 -17.102  0.00  0.00    +0.259 HD
ATOM     21  CZ  ARG A   2     -19.882 -32.920 -18.623  0.00  0.00    +0.342 C 
ATOM     22  NH2 ARG A   2     -20.001 -34.195 -18.276  0.00  0.00    -0.292 N 
ATOM     23 HH21 ARG A   2     -19.480 -34.561 -17.454  0.00  0.00    +0.255 HD
ATOM     24 HH22 ARG A   2     -20.615 -34.829 -18.826  0.00  0.00    +0.255 HD
ATOM     25  NH1 ARG A   2     -20.548 -32.467 -19.675  0.00  0.00    -0.292 N 
ATOM     26 HH11 ARG A   2     -20.459 -31.470 -19.957  0.00  0.00    +0.255 HD
ATOM     27 HH12 ARG A   2     -21.160 -33.109 -20.219  0.00  0.00    +0.255 HD
ENDBRANCH  18  19
ENDBRANCH  17  18
ENDBRANCH  16  17
ENDBRANCH   1  16
TORSDOF 11
REMARK  Name = ../refined-set-2016/3t08/3t08_pocket.pdb
REMARK  188 active torsions:
REMARK  status: ('A' for Active; 'I' for Inactive)
REMARK    1  A    between atoms: _1  and  _3
REMARK    2  A    between atoms: _3  and  _4
REMARK    3  A    between atoms: _3  and  _6
REMARK    4  A    between atoms: _6  and  _7
REMARK    5  A    between atoms: _12  and  _13
REMARK    6  A    between atoms: _15  and  _17
REMARK    7  A    between atoms: _17  and  _18
REMARK    8  A    between atoms: _17  and  _20
REMARK    9  A    between atoms: _20  and  _21
REMARK   10  A    between atoms: _26  and  _28
REMARK   11  A    between atoms: _28  and  _29
REMARK   12  A    between atoms: _28  and  _31
REMARK   13  A    between atoms: _34  and  _36
REMARK   14  A    between atoms: _36  and  _37
REMARK   15  A    between atoms: _36  and  _39
REMARK   16  A    between atoms: _39  and  _40
REMARK   17  A    between atoms: _43  and  _45
REMARK   18  A    between atoms: _45  and  _46
REMARK   19  A    between atoms: _45  and  _48
REMARK   20  A    between atoms: _48  and  _49
REMARK   21  A    between atoms: _49  and  _50
REMARK   22  A    between atoms: _55  and  _57
REMARK   23  A    between atoms: _57  and  _58
REMARK   24  A    between atoms: _57  and  _60
REMARK   25  A    between atoms: _60  and  _61
REMARK   26  A    between atoms: _64  and  _66
REMARK   27  A    between atoms: _66  and  _67
REMARK   28  A    between atoms: _66  and  _69
REMARK   29  A    between atoms: _69  and  _70
REMARK   30  A    between atoms: _70  and  _71
REMARK   31  A    between atoms: _73  and  _75
REMARK   32  A    between atoms: _75  and  _76
REMARK   33  A    between atoms: _75  and  _78
REMARK   34  A    between atoms: _78  and  _79
REMARK   35  A    between atoms: _84  and  _86
REMARK   36  A    between atoms: _86  and  _87
REMARK   37  A    between atoms: _86  and  _89
REMARK   38  A    between atoms: _89  and  _90
REMARK   39  A    between atoms: _95  and  _97
REMARK   40  A    between atoms: _97  and  _98
REMARK   41  A    between atoms: _97  and  _100
REMARK   42  A    between atoms: _100  and  _101
REMARK   43  A    between atoms: _101  and  _102
REMARK   44  A    between atoms: _102  and  _103
REMARK   45  A    between atoms: _112  and  _114
REMARK   46  A    between atoms: _114  and  _115
REMARK   47  A    between atoms: _114  and  _117
REMARK   48  A    between atoms: _117  and  _118
REMARK   49  A    between atoms: _123  and  _125
REMARK   50  A    between atoms: _125  and  _126
REMARK   51  A    between atoms: _125  and  _128
REMARK   52  A    between atoms: _128  and  _129
REMARK   53  A    between atoms: _129  and  _130
REMARK   54  A    between atoms: _133  and  _135
REMARK   55  A    between atoms: _135  and  _136
REMARK   56  A    between atoms: _135  and  _138
REMARK   57  A    between atoms: _138  and  _139
REMARK   58  A    between atoms: _140  and  MG_451
REMARK   59  A    between atoms: _144  and  _146
REMARK   60  A    between atoms: _146  and  _147
REMARK   61  A    between atoms: _146  and  _149
REMARK   62  A    between atoms: _149  and  _150
REMARK   63  A    between atoms: _150  and  _151
REMARK   64  A    between atoms: _153  and  _155
REMARK   65  A    between atoms: _155  and  _156
REMARK   66  A    between atoms: _155  and  _158
REMARK   67  A    between atoms: _158  and  _159
REMARK   68  A    between atoms: _164  and  _166
REMARK   69  A    between atoms: _166  and  _167
REMARK   70  A    between atoms: _166  and  _169
REMARK   71  A    between atoms: _169  and  _170
REMARK   72  A    between atoms: _170  and  _171
REMARK   73  A    between atoms: _174  and  _176
REMARK   74  A    between atoms: _176  and  _177
REMARK   75  A    between atoms: _176  and  _179
REMARK   76  A    between atoms: _179  and  _180
REMARK   77  A    between atoms: _180  and  _181
REMARK   78  A    between atoms: _184  and  _186
REMARK   79  A    between atoms: _186  and  _187
REMARK   80  A    between atoms: _186  and  _189
REMARK   81  A    between atoms: _189  and  _190
REMARK   82  A    between atoms: _190  and  _191
REMARK   83  A    between atoms: _193  and  _195
REMARK   84  A    between atoms: _195  and  _196
REMARK   85  A    between atoms: _195  and  _198
REMARK   86  A    between atoms: _198  and  _199
REMARK   87  A    between atoms: _204  and  _205
REMARK   88  A    between atoms: _207  and  _209
REMARK   89  A    between atoms: _209  and  _210
REMARK   90  A    between atoms: _209  and  _212
REMARK   91  A    between atoms: _212  and  _213
REMARK   92  A    between atoms: _213  and  _214
REMARK   93  A    between atoms: _214  and  _215
REMARK   94  A    between atoms: _215  and  _216
REMARK   95  A    between atoms: _220  and  _222
REMARK   96  A    between atoms: _222  and  _223
REMARK   97  A    between atoms: _222  and  _225
REMARK   98  A    between atoms: _227  and  _229
REMARK   99  A    between atoms: _229  and  _230
REMARK  100  A    between atoms: _229  and  _232
REMARK  101  A    between atoms: _232  and  _233
REMARK  102  A    between atoms: _233  and  _234
REMARK  103  A    between atoms: _237  and  _239
REMARK  104  A    between atoms: _239  and  _240
REMARK  105  A    between atoms: _239  and  _242
REMARK  106  A    between atoms: _242  and  _243
REMARK  107  A    between atoms: _248  and  _250
REMARK  108  A    between atoms: _250  and  _251
REMARK  109  A    between atoms: _254  and  _256
REMARK  110  A    between atoms: _256  and  _257
REMARK  111  A    between atoms: _256  and  _259
REMARK  112  A    between atoms: _259  and  _260
REMARK  113  A    between atoms: _260  and  _261
REMARK  114  A    between atoms: _263  and  _265
REMARK  115  A    between atoms: _265  and  _266
REMARK  116  A    between atoms: _265  and  _268
REMARK  117  A    between atoms: _268  and  _269
REMARK  118  A    between atoms: _279  and  _281
REMARK  119  A    between atoms: _281  and  _282
REMARK  120  A    between atoms: _281  and  _284
REMARK  121  A    between atoms: _284  and  _285
REMARK  122  A    between atoms: _288  and  _290
REMARK  123  A    between atoms: _290  and  _291
REMARK  124  A    between atoms: _290  and  _293
REMARK  125  A    between atoms: _293  and  _294
REMARK  126  A    between atoms: _294  and  _295
REMARK  127  A    between atoms: _300  and  _302
REMARK  128  A    between atoms: _302  and  _303
REMARK  129  A    between atoms: _302  and  _305
REMARK  130  A    between atoms: _305  and  _306
REMARK  131  A    between atoms: _309  and  _311
REMARK  132  A    between atoms: _311  and  _312
REMARK  133  A    between atoms: _311  and  _314
REMARK  134  A    between atoms: _314  and  _315
REMARK  135  A    between atoms: _315  and  _316
REMARK  136  A    between atoms: _321  and  _323
REMARK  137  A    between atoms: _323  and  _324
REMARK  138  A    between atoms: _323  and  _326
REMARK  139  A    between atoms: _326  and  _327
REMARK  140  A    between atoms: _333  and  _335
REMARK  141  A    between atoms: _335  and  _336
REMARK  142  A    between atoms: _335  and  _338
REMARK  143  A    between atoms: _340  and  _342
REMARK  144  A    between atoms: _342  and  _343
REMARK  145  A    between atoms: _342  and  _345
REMARK  146  A    between atoms: _345  and  _346
REMARK  147  A    between atoms: _346  and  _347
REMARK  148  A    between atoms: _349  and  _351
REMARK  149  A    between atoms: _351  and  _352
REMARK  150  A    between atoms: _351  and  _354
REMARK  151  A    between atoms: _354  and  _355
REMARK  152  A    between atoms: _360  and  _362
REMARK  153  A    between atoms: _362  and  _363
REMARK  154  A    between atoms: _365  and  _367
REMARK  155  A    between atoms: _367  and  _368
REMARK  156  A    between atoms: _367  and  _370
REMARK  157  A    between atoms: _373  and  _375
REMARK  158  A    between atoms: _375  and  _376
REMARK  159  A    between atoms: _375  and  _378
REMARK  160  A    between atoms: _378  and  _379
REMARK  161  A    between atoms: _379  and  _380
REMARK  162  A    between atoms: _383  and  _385
REMARK  163  A    between atoms: _385  and  _386
REMARK  164  A    between atoms: _385  and  _388
REMARK  165  A    between atoms: _388  and  _389
REMARK  166  A    between atoms: _392  and  _394
REMARK  167  A    between atoms: _394  and  _395
REMARK  168  A    between atoms: _394  and  _397
REMARK  169  A    between atoms: _397  and  _398
REMARK  170  A    between atoms: _400  and  _402
REMARK  171  A    between atoms: _402  and  _403
REMARK  172  A    between atoms: _402  and  _405
REMARK  173  A    between atoms: _405  and  _406
REMARK  174  A    between atoms: _416  and  _418
REMARK  175  A    between atoms: _418  and  _419
REMARK  176  A    between atoms: _418  and  _421
REMARK  177  A    between atoms: _421  and  _422
REMARK  178  A    between atoms: _424  and  _426
REMARK  179  A    between atoms: _426  and  _427
REMARK  180  A    between atoms: _426  and  _429
REMARK  181  A    between atoms: _429  and  _430
REMARK  182  A    between atoms: _430  and  _431
REMARK  183  A    between atoms: _434  and  _436
REMARK  184  A    between atoms: _436  and  _437
REMARK  185  A    between atoms: _436  and  _439
REMARK  186  A    between atoms: _439  and  _440
REMARK  187  A    between atoms: _440  and  _441
REMARK  188  A    between atoms: _441  and  _442
REMARK                            x       y       z     vdW  Elec       q    Type
REMARK                         _______ _______ _______ _____ _____    ______ ____
ROOT
ATOM      1 NA   UNL     1     -11.371 -31.148 -30.764  0.00  0.00    +0.000 Na
ATOM      2  O   UNL     1      -9.489 -32.119 -30.438  0.00  0.00    +0.000 OA
ENDROOT
TORSDOF 0
REMARK  Name = ../refined-set-2016/3t08/3t08_pocket.pdb
REMARK  188 active torsions:
REMARK  status: ('A' for Active; 'I' for Inactive)
REMARK    1  A    between atoms: _1  and  _3
REMARK    2  A    between atoms: _3  and  _4
REMARK    3  A    between atoms: _3  and  _6
REMARK    4  A    between atoms: _6  and  _7
REMARK    5  A    between atoms: _12  and  _13
REMARK    6  A    between atoms: _15  and  _17
REMARK    7  A    between atoms: _17  and  _18
REMARK    8  A    between atoms: _17  and  _20
REMARK    9  A    between atoms: _20  and  _21
REMARK   10  A    between atoms: _26  and  _28
REMARK   11  A    between atoms: _28  and  _29
REMARK   12  A    between atoms: _28  and  _31
REMARK   13  A    between atoms: _34  and  _36
REMARK   14  A    between atoms: _36  and  _37
REMARK   15  A    between atoms: _36  and  _39
REMARK   16  A    between atoms: _39  and  _40
REMARK   17  A    between atoms: _43  and  _45
REMARK   18  A    between atoms: _45  and  _46
REMARK   19  A    between atoms: _45  and  _48
REMARK   20  A    between atoms: _48  and  _49
REMARK   21  A    between atoms: _49  and  _50
REMARK   22  A    between atoms: _55  and  _57
REMARK   23  A    between atoms: _57  and  _58
REMARK   24  A    between atoms: _57  and  _60
REMARK   25  A    between atoms: _60  and  _61
REMARK   26  A    between atoms: _64  and  _66
REMARK   27  A    between atoms: _66  and  _67
REMARK   28  A    between atoms: _66  and  _69
REMARK   29  A    between atoms: _69  and  _70
REMARK   30  A    between atoms: _70  and  _71
REMARK   31  A    between atoms: _73  and  _75
REMARK   32  A    between atoms: _75  and  _76
REMARK   33  A    between atoms: _75  and  _78
REMARK   34  A    between atoms: _78  and  _79
REMARK   35  A    between atoms: _84  and  _86
REMARK   36  A    between atoms: _86  and  _87
REMARK   37  A    between atoms: _86  and  _89
REMARK   38  A    between atoms: _89  and  _90
REMARK   39  A    between atoms: _95  and  _97
REMARK   40  A    between atoms: _97  and  _98
REMARK   41  A    between atoms: _97  and  _100
REMARK   42  A    between atoms: _100  and  _101
REMARK   43  A    between atoms: _101  and  _102
REMARK   44  A    between atoms: _102  and  _103
REMARK   45  A    between atoms: _112  and  _114
REMARK   46  A    between atoms: _114  and  _115
REMARK   47  A    between atoms: _114  and  _117
REMARK   48  A    between atoms: _117  and  _118
REMARK   49  A    between atoms: _123  and  _125
REMARK   50  A    between atoms: _125  and  _126
REMARK   51  A    between atoms: _125  and  _128
REMARK   52  A    between atoms: _128  and  _129
REMARK   53  A    between atoms: _129  and  _130
REMARK   54  A    between atoms: _133  and  _135
REMARK   55  A    between atoms: _135  and  _136
REMARK   56  A    between atoms: _135  and  _138
REMARK   57  A    between atoms: _138  and  _139
REMARK   58  A    between atoms: _140  and  MG_451
REMARK   59  A    between atoms: _144  and  _146
REMARK   60  A    between atoms: _146  and  _147
REMARK   61  A    between atoms: _146  and  _149
REMARK   62  A    between atoms: _149  and  _150
REMARK   63  A    between atoms: _150  and  _151
REMARK   64  A    between atoms: _153  and  _155
REMARK   65  A    between atoms: _155  and  _156
REMARK   66  A    between atoms: _155  and  _158
REMARK   67  A    between atoms: _158  and  _159
REMARK   68  A    between atoms: _164  and  _166
REMARK   69  A    between atoms: _166  and  _167
REMARK   70  A    between atoms: _166  and  _169
REMARK   71  A    between atoms: _169  and  _170
REMARK   72  A    between atoms: _170  and  _171
REMARK   73  A    between atoms: _174  and  _176
REMARK   74  A    between atoms: _176  and  _177
REMARK   75  A    between atoms: _176  and  _179
REMARK   76  A    between atoms: _179  and  _180
REMARK   77  A    between atoms: _180  and  _181
REMARK   78  A    between atoms: _184  and  _186
REMARK   79  A    between atoms: _186  and  _187
REMARK   80  A    between atoms: _186  and  _189
REMARK   81  A    between atoms: _189  and  _190
REMARK   82  A    between atoms: _190  and  _191
REMARK   83  A    between atoms: _193  and  _195
REMARK   84  A    between atoms: _195  and  _196
REMARK   85  A    between atoms: _195  and  _198
REMARK   86  A    between atoms: _198  and  _199
REMARK   87  A    between atoms: _204  and  _205
REMARK   88  A    between atoms: _207  and  _209
REMARK   89  A    between atoms: _209  and  _210
REMARK   90  A    between atoms: _209  and  _212
REMARK   91  A    between atoms: _212  and  _213
REMARK   92  A    between atoms: _213  and  _214
REMARK   93  A    between atoms: _214  and  _215
REMARK   94  A    between atoms: _215  and  _216
REMARK   95  A    between atoms: _220  and  _222
REMARK   96  A    between atoms: _222  and  _223
REMARK   97  A    between atoms: _222  and  _225
REMARK   98  A    between atoms: _227  and  _229
REMARK   99  A    between atoms: _229  and  _230
REMARK  100  A    between atoms: _229  and  _232
REMARK  101  A    between atoms: _232  and  _233
REMARK  102  A    between atoms: _233  and  _234
REMARK  103  A    between atoms: _237  and  _239
REMARK  104  A    between atoms: _239  and  _240
REMARK  105  A    between atoms: _239  and  _242
REMARK  106  A    between atoms: _242  and  _243
REMARK  107  A    between atoms: _248  and  _250
REMARK  108  A    between atoms: _250  and  _251
REMARK  109  A    between atoms: _254  and  _256
REMARK  110  A    between atoms: _256  and  _257
REMARK  111  A    between atoms: _256  and  _259
REMARK  112  A    between atoms: _259  and  _260
REMARK  113  A    between atoms: _260  and  _261
REMARK  114  A    between atoms: _263  and  _265
REMARK  115  A    between atoms: _265  and  _266
REMARK  116  A    between atoms: _265  and  _268
REMARK  117  A    between atoms: _268  and  _269
REMARK  118  A    between atoms: _279  and  _281
REMARK  119  A    between atoms: _281  and  _282
REMARK  120  A    between atoms: _281  and  _284
REMARK  121  A    between atoms: _284  and  _285
REMARK  122  A    between atoms: _288  and  _290
REMARK  123  A    between atoms: _290  and  _291
REMARK  124  A    between atoms: _290  and  _293
REMARK  125  A    between atoms: _293  and  _294
REMARK  126  A    between atoms: _294  and  _295
REMARK  127  A    between atoms: _300  and  _302
REMARK  128  A    between atoms: _302  and  _303
REMARK  129  A    between atoms: _302  and  _305
REMARK  130  A    between atoms: _305  and  _306
REMARK  131  A    between atoms: _309  and  _311
REMARK  132  A    between atoms: _311  and  _312
REMARK  133  A    between atoms: _311  and  _314
REMARK  134  A    between atoms: _314  and  _315
REMARK  135  A    between atoms: _315  and  _316
REMARK  136  A    between atoms: _321  and  _323
REMARK  137  A    between atoms: _323  and  _324
REMARK  138  A    between atoms: _323  and  _326
REMARK  139  A    between atoms: _326  and  _327
REMARK  140  A    between atoms: _333  and  _335
REMARK  141  A    between atoms: _335  and  _336
REMARK  142  A    between atoms: _335  and  _338
REMARK  143  A    between atoms: _340  and  _342
REMARK  144  A    between atoms: _342  and  _343
REMARK  145  A    between atoms: _342  and  _345
REMARK  146  A    between atoms: _345  and  _346
REMARK  147  A    between atoms: _346  and  _347
REMARK  148  A    between atoms: _349  and  _351
REMARK  149  A    between atoms: _351  and  _352
REMARK  150  A    between atoms: _351  and  _354
REMARK  151  A    between atoms: _354  and  _355
REMARK  152  A    between atoms: _360  and  _362
REMARK  153  A    between atoms: _362  and  _363
REMARK  154  A    between atoms: _365  and  _367
REMARK  155  A    between atoms: _367  and  _368
REMARK  156  A    between atoms: _367  and  _370
REMARK  157  A    between atoms: _373  and  _375
REMARK  158  A    between atoms: _375  and  _376
REMARK  159  A    between atoms: _375  and  _378
REMARK  160  A    between atoms: _378  and  _379
REMARK  161  A    between atoms: _379  and  _380
REMARK  162  A    between atoms: _383  and  _385
REMARK  163  A    between atoms: _385  and  _386
REMARK  164  A    between atoms: _385  and  _388
REMARK  165  A    between atoms: _388  and  _389
REMARK  166  A    between atoms: _392  and  _394
REMARK  167  A    between atoms: _394  and  _395
REMARK  168  A    between atoms: _394  and  _397
REMARK  169  A    between atoms: _397  and  _398
REMARK  170  A    between atoms: _400  and  _402
REMARK  171  A    between atoms: _402  and  _403
REMARK  172  A    between atoms: _402  and  _405
REMARK  173  A    between atoms: _405  and  _406
REMARK  174  A    between atoms: _416  and  _418
REMARK  175  A    between atoms: _418  and  _419
REMARK  176  A    between atoms: _418  and  _421
REMARK  177  A    between atoms: _421  and  _422
REMARK  178  A    between atoms: _424  and  _426
REMARK  179  A    between atoms: _426  and  _427
REMARK  180  A    between atoms: _426  and  _429
REMARK  181  A    between atoms: _429  and  _430
REMARK  182  A    between atoms: _430  and  _431
REMARK  183  A    between atoms: _434  and  _436
REMARK  184  A    between atoms: _436  and  _437
REMARK  185  A    between atoms: _436  and  _439
REMARK  186  A    between atoms: _439  and  _440
REMARK  187  A    between atoms: _440  and  _441
REMARK  188  A    between atoms: _441  and  _442
REMARK                            x       y       z     vdW  Elec       q    Type
REMARK                         _______ _______ _______ _____ _____    ______ ____
ROOT
ATOM      1  O   HOH     1      -8.918 -29.470 -25.671  0.00  0.00    +0.000 OA
ENDROOT
TORSDOF 0
REMARK  Name = ../refined-set-2016/3t08/3t08_pocket.pdb
REMARK  188 active torsions:
REMARK  status: ('A' for Active; 'I' for Inactive)
REMARK    1  A    between atoms: _1  and  _3
REMARK    2  A    between atoms: _3  and  _4
REMARK    3  A    between atoms: _3  and  _6
REMARK    4  A    between atoms: _6  and  _7
REMARK    5  A    between atoms: _12  and  _13
REMARK    6  A    between atoms: _15  and  _17
REMARK    7  A    between atoms: _17  and  _18
REMARK    8  A    between atoms: _17  and  _20
REMARK    9  A    between atoms: _20  and  _21
REMARK   10  A    between atoms: _26  and  _28
REMARK   11  A    between atoms: _28  and  _29
REMARK   12  A    between atoms: _28  and  _31
REMARK   13  A    between atoms: _34  and  _36
REMARK   14  A    between atoms: _36  and  _37
REMARK   15  A    between atoms: _36  and  _39
REMARK   16  A    between atoms: _39  and  _40
REMARK   17  A    between atoms: _43  and  _45
REMARK   18  A    between atoms: _45  and  _46
REMARK   19  A    between atoms: _45  and  _48
REMARK   20  A    between atoms: _48  and  _49
REMARK   21  A    between atoms: _49  and  _50
REMARK   22  A    between atoms: _55  and  _57
REMARK   23  A    between atoms: _57  and  _58
REMARK   24  A    between atoms: _57  and  _60
REMARK   25  A    between atoms: _60  and  _61
REMARK   26  A    between atoms: _64  and  _66
REMARK   27  A    between atoms: _66  and  _67
REMARK   28  A    between atoms: _66  and  _69
REMARK   29  A    between atoms: _69  and  _70
REMARK   30  A    between atoms: _70  and  _71
REMARK   31  A    between atoms: _73  and  _75
REMARK   32  A    between atoms: _75  and  _76
REMARK   33  A    between atoms: _75  and  _78
REMARK   34  A    between atoms: _78  and  _79
REMARK   35  A    between atoms: _84  and  _86
REMARK   36  A    between atoms: _86  and  _87
REMARK   37  A    between atoms: _86  and  _89
REMARK   38  A    between atoms: _89  and  _90
REMARK   39  A    between atoms: _95  and  _97
REMARK   40  A    between atoms: _97  and  _98
REMARK   41  A    between atoms: _97  and  _100
REMARK   42  A    between atoms: _100  and  _101
REMARK   43  A    between atoms: _101  and  _102
REMARK   44  A    between atoms: _102  and  _103
REMARK   45  A    between atoms: _112  and  _114
REMARK   46  A    between atoms: _114  and  _115
REMARK   47  A    between atoms: _114  and  _117
REMARK   48  A    between atoms: _117  and  _118
REMARK   49  A    between atoms: _123  and  _125
REMARK   50  A    between atoms: _125  and  _126
REMARK   51  A    between atoms: _125  and  _128
REMARK   52  A    between atoms: _128  and  _129
REMARK   53  A    between atoms: _129  and  _130
REMARK   54  A    between atoms: _133  and  _135
REMARK   55  A    between atoms: _135  and  _136
REMARK   56  A    between atoms: _135  and  _138
REMARK   57  A    between atoms: _138  and  _139
REMARK   58  A    between atoms: _140  and  MG_451
REMARK   59  A    between atoms: _144  and  _146
REMARK   60  A    between atoms: _146  and  _147
REMARK   61  A    between atoms: _146  and  _149
REMARK   62  A    between atoms: _149  and  _150
REMARK   63  A    between atoms: _150  and  _151
REMARK   64  A    between atoms: _153  and  _155
REMARK   65  A    between atoms: _155  and  _156
REMARK   66  A    between atoms: _155  and  _158
REMARK   67  A    between atoms: _158  and  _159
REMARK   68  A    between atoms: _164  and  _166
REMARK   69  A    between atoms: _166  and  _167
REMARK   70  A    between atoms: _166  and  _169
REMARK   71  A    between atoms: _169  and  _170
REMARK   72  A    between atoms: _170  and  _171
REMARK   73  A    between atoms: _174  and  _176
REMARK   74  A    between atoms: _176  and  _177
REMARK   75  A    between atoms: _176  and  _179
REMARK   76  A    between atoms: _179  and  _180
REMARK   77  A    between atoms: _180  and  _181
REMARK   78  A    between atoms: _184  and  _186
REMARK   79  A    between atoms: _186  and  _187
REMARK   80  A    between atoms: _186  and  _189
REMARK   81  A    between atoms: _189  and  _190
REMARK   82  A    between atoms: _190  and  _191
REMARK   83  A    between atoms: _193  and  _195
REMARK   84  A    between atoms: _195  and  _196
REMARK   85  A    between atoms: _195  and  _198
REMARK   86  A    between atoms: _198  and  _199
REMARK   87  A    between atoms: _204  and  _205
REMARK   88  A    between atoms: _207  and  _209
REMARK   89  A    between atoms: _209  and  _210
REMARK   90  A    between atoms: _209  and  _212
REMARK   91  A    between atoms: _212  and  _213
REMARK   92  A    between atoms: _213  and  _214
REMARK   93  A    between atoms: _214  and  _215
REMARK   94  A    between atoms: _215  and  _216
REMARK   95  A    between atoms: _220  and  _222
REMARK   96  A    between atoms: _222  and  _223
REMARK   97  A    between atoms: _222  and  _225
REMARK   98  A    between atoms: _227  and  _229
REMARK   99  A    between atoms: _229  and  _230
REMARK  100  A    between atoms: _229  and  _232
REMARK  101  A    between atoms: _232  and  _233
REMARK  102  A    between atoms: _233  and  _234
REMARK  103  A    between atoms: _237  and  _239
REMARK  104  A    between atoms: _239  and  _240
REMARK  105  A    between atoms: _239  and  _242
REMARK  106  A    between atoms: _242  and  _243
REMARK  107  A    between atoms: _248  and  _250
REMARK  108  A    between atoms: _250  and  _251
REMARK  109  A    between atoms: _254  and  _256
REMARK  110  A    between atoms: _256  and  _257
REMARK  111  A    between atoms: _256  and  _259
REMARK  112  A    between atoms: _259  and  _260
REMARK  113  A    between atoms: _260  and  _261
REMARK  114  A    between atoms: _263  and  _265
REMARK  115  A    between atoms: _265  and  _266
REMARK  116  A    between atoms: _265  and  _268
REMARK  117  A    between atoms: _268  and  _269
REMARK  118  A    between atoms: _279  and  _281
REMARK  119  A    between atoms: _281  and  _282
REMARK  120  A    between atoms: _281  and  _284
REMARK  121  A    between atoms: _284  and  _285
REMARK  122  A    between atoms: _288  and  _290
REMARK  123  A    between atoms: _290  and  _291
REMARK  124  A    between atoms: _290  and  _293
REMARK  125  A    between atoms: _293  and  _294
REMARK  126  A    between atoms: _294  and  _295
REMARK  127  A    between atoms: _300  and  _302
REMARK  128  A    between atoms: _302  and  _303
REMARK  129  A    between atoms: _302  and  _305
REMARK  130  A    between atoms: _305  and  _306
REMARK  131  A    between atoms: _309  and  _311
REMARK  132  A    between atoms: _311  and  _312
REMARK  133  A    between atoms: _311  and  _314
REMARK  134  A    between atoms: _314  and  _315
REMARK  135  A    between atoms: _315  and  _316
REMARK  136  A    between atoms: _321  and  _323
REMARK  137  A    between atoms: _323  and  _324
REMARK  138  A    between atoms: _323  and  _326
REMARK  139  A    between atoms: _326  and  _327
REMARK  140  A    between atoms: _333  and  _335
REMARK  141  A    between atoms: _335  and  _336
REMARK  142  A    between atoms: _335  and  _338
REMARK  143  A    between atoms: _340  and  _342
REMARK  144  A    between atoms: _342  and  _343
REMARK  145  A    between atoms: _342  and  _345
REMARK  146  A    between atoms: _345  and  _346
REMARK  147  A    between atoms: _346  and  _347
REMARK  148  A    between atoms: _349  and  _351
REMARK  149  A    between atoms: _351  and  _352
REMARK  150  A    between atoms: _351  and  _354
REMARK  151  A    between atoms: _354  and  _355
REMARK  152  A    between atoms: _360  and  _362
REMARK  153  A    between atoms: _362  and  _363
REMARK  154  A    between atoms: _365  and  _367
REMARK  155  A    between atoms: _367  and  _368
REMARK  156  A    between atoms: _367  and  _370
REMARK  157  A    between atoms: _373  and  _375
REMARK  158  A    between atoms: _375  and  _376
REMARK  159  A    between atoms: _375  and  _378
REMARK  160  A    between atoms: _378  and  _379
REMARK  161  A    between atoms: _379  and  _380
REMARK  162  A    between atoms: _383  and  _385
REMARK  163  A    between atoms: _385  and  _386
REMARK  164  A    between atoms: _385  and  _388
REMARK  165  A    between atoms: _388  and  _389
REMARK  166  A    between atoms: _392  and  _394
REMARK  167  A    between atoms: _394  and  _395
REMARK  168  A    between atoms: _394  and  _397
REMARK  169  A    between atoms: _397  and  _398
REMARK  170  A    between atoms: _400  and  _402
REMARK  171  A    between atoms: _402  and  _403
REMARK  172  A    between atoms: _402  and  _405
REMARK  173  A    between atoms: _405  and  _406
REMARK  174  A    between atoms: _416  and  _418
REMARK  175  A    between atoms: _418  and  _419
REMARK  176  A    between atoms: _418  and  _421
REMARK  177  A    between atoms: _421  and  _422
REMARK  178  A    between atoms: _424  and  _426
REMARK  179  A    between atoms: _426  and  _427
REMARK  180  A    between atoms: _426  and  _429
REMARK  181  A    between atoms: _429  and  _430
REMARK  182  A    between atoms: _430  and  _431
REMARK  183  A    between atoms: _434  and  _436
REMARK  184  A    between atoms: _436  and  _437
REMARK  185  A    between atoms: _436  and  _439
REMARK  186  A    between atoms: _439  and  _440
REMARK  187  A    between atoms: _440  and  _441
REMARK  188  A    between atoms: _441  and  _442
REMARK                            x       y       z     vdW  Elec       q    Type
REMARK                         _______ _______ _______ _____ _____    ______ ____
ROOT
ATOM      1  O   HOH     1      -7.580 -31.728 -26.675  0.00  0.00    +0.000 OA
ENDROOT
TORSDOF 0
REMARK  Name = ../refined-set-2016/3t08/3t08_pocket.pdb
REMARK  188 active torsions:
REMARK  status: ('A' for Active; 'I' for Inactive)
REMARK    1  A    between atoms: _1  and  _3
REMARK    2  A    between atoms: _3  and  _4
REMARK    3  A    between atoms: _3  and  _6
REMARK    4  A    between atoms: _6  and  _7
REMARK    5  A    between atoms: _12  and  _13
REMARK    6  A    between atoms: _15  and  _17
REMARK    7  A    between atoms: _17  and  _18
REMARK    8  A    between atoms: _17  and  _20
REMARK    9  A    between atoms: _20  and  _21
REMARK   10  A    between atoms: _26  and  _28
REMARK   11  A    between atoms: _28  and  _29
REMARK   12  A    between atoms: _28  and  _31
REMARK   13  A    between atoms: _34  and  _36
REMARK   14  A    between atoms: _36  and  _37
REMARK   15  A    between atoms: _36  and  _39
REMARK   16  A    between atoms: _39  and  _40
REMARK   17  A    between atoms: _43  and  _45
REMARK   18  A    between atoms: _45  and  _46
REMARK   19  A    between atoms: _45  and  _48
REMARK   20  A    between atoms: _48  and  _49
REMARK   21  A    between atoms: _49  and  _50
REMARK   22  A    between atoms: _55  and  _57
REMARK   23  A    between atoms: _57  and  _58
REMARK   24  A    between atoms: _57  and  _60
REMARK   25  A    between atoms: _60  and  _61
REMARK   26  A    between atoms: _64  and  _66
REMARK   27  A    between atoms: _66  and  _67
REMARK   28  A    between atoms: _66  and  _69
REMARK   29  A    between atoms: _69  and  _70
REMARK   30  A    between atoms: _70  and  _71
REMARK   31  A    between atoms: _73  and  _75
REMARK   32  A    between atoms: _75  and  _76
REMARK   33  A    between atoms: _75  and  _78
REMARK   34  A    between atoms: _78  and  _79
REMARK   35  A    between atoms: _84  and  _86
REMARK   36  A    between atoms: _86  and  _87
REMARK   37  A    between atoms: _86  and  _89
REMARK   38  A    between atoms: _89  and  _90
REMARK   39  A    between atoms: _95  and  _97
REMARK   40  A    between atoms: _97  and  _98
REMARK   41  A    between atoms: _97  and  _100
REMARK   42  A    between atoms: _100  and  _101
REMARK   43  A    between atoms: _101  and  _102
REMARK   44  A    between atoms: _102  and  _103
REMARK   45  A    between atoms: _112  and  _114
REMARK   46  A    between atoms: _114  and  _115
REMARK   47  A    between atoms: _114  and  _117
REMARK   48  A    between atoms: _117  and  _118
REMARK   49  A    between atoms: _123  and  _125
REMARK   50  A    between atoms: _125  and  _126
REMARK   51  A    between atoms: _125  and  _128
REMARK   52  A    between atoms: _128  and  _129
REMARK   53  A    between atoms: _129  and  _130
REMARK   54  A    between atoms: _133  and  _135
REMARK   55  A    between atoms: _135  and  _136
REMARK   56  A    between atoms: _135  and  _138
REMARK   57  A    between atoms: _138  and  _139
REMARK   58  A    between atoms: _140  and  MG_451
REMARK   59  A    between atoms: _144  and  _146
REMARK   60  A    between atoms: _146  and  _147
REMARK   61  A    between atoms: _146  and  _149
REMARK   62  A    between atoms: _149  and  _150
REMARK   63  A    between atoms: _150  and  _151
REMARK   64  A    between atoms: _153  and  _155
REMARK   65  A    between atoms: _155  and  _156
REMARK   66  A    between atoms: _155  and  _158
REMARK   67  A    between atoms: _158  and  _159
REMARK   68  A    between atoms: _164  and  _166
REMARK   69  A    between atoms: _166  and  _167
REMARK   70  A    between atoms: _166  and  _169
REMARK   71  A    between atoms: _169  and  _170
REMARK   72  A    between atoms: _170  and  _171
REMARK   73  A    between atoms: _174  and  _176
REMARK   74  A    between atoms: _176  and  _177
REMARK   75  A    between atoms: _176  and  _179
REMARK   76  A    between atoms: _179  and  _180
REMARK   77  A    between atoms: _180  and  _181
REMARK   78  A    between atoms: _184  and  _186
REMARK   79  A    between atoms: _186  and  _187
REMARK   80  A    between atoms: _186  and  _189
REMARK   81  A    between atoms: _189  and  _190
REMARK   82  A    between atoms: _190  and  _191
REMARK   83  A    between atoms: _193  and  _195
REMARK   84  A    between atoms: _195  and  _196
REMARK   85  A    between atoms: _195  and  _198
REMARK   86  A    between atoms: _198  and  _199
REMARK   87  A    between atoms: _204  and  _205
REMARK   88  A    between atoms: _207  and  _209
REMARK   89  A    between atoms: _209  and  _210
REMARK   90  A    between atoms: _209  and  _212
REMARK   91  A    between atoms: _212  and  _213
REMARK   92  A    between atoms: _213  and  _214
REMARK   93  A    between atoms: _214  and  _215
REMARK   94  A    between atoms: _215  and  _216
REMARK   95  A    between atoms: _220  and  _222
REMARK   96  A    between atoms: _222  and  _223
REMARK   97  A    between atoms: _222  and  _225
REMARK   98  A    between atoms: _227  and  _229
REMARK   99  A    between atoms: _229  and  _230
REMARK  100  A    between atoms: _229  and  _232
REMARK  101  A    between atoms: _232  and  _233
REMARK  102  A    between atoms: _233  and  _234
REMARK  103  A    between atoms: _237  and  _239
REMARK  104  A    between atoms: _239  and  _240
REMARK  105  A    between atoms: _239  and  _242
REMARK  106  A    between atoms: _242  and  _243
REMARK  107  A    between atoms: _248  and  _250
REMARK  108  A    between atoms: _250  and  _251
REMARK  109  A    between atoms: _254  and  _256
REMARK  110  A    between atoms: _256  and  _257
REMARK  111  A    between atoms: _256  and  _259
REMARK  112  A    between atoms: _259  and  _260
REMARK  113  A    between atoms: _260  and  _261
REMARK  114  A    between atoms: _263  and  _265
REMARK  115  A    between atoms: _265  and  _266
REMARK  116  A    between atoms: _265  and  _268
REMARK  117  A    between atoms: _268  and  _269
REMARK  118  A    between atoms: _279  and  _281
REMARK  119  A    between atoms: _281  and  _282
REMARK  120  A    between atoms: _281  and  _284
REMARK  121  A    between atoms: _284  and  _285
REMARK  122  A    between atoms: _288  and  _290
REMARK  123  A    between atoms: _290  and  _291
REMARK  124  A    between atoms: _290  and  _293
REMARK  125  A    between atoms: _293  and  _294
REMARK  126  A    between atoms: _294  and  _295
REMARK  127  A    between atoms: _300  and  _302
REMARK  128  A    between atoms: _302  and  _303
REMARK  129  A    between atoms: _302  and  _305
REMARK  130  A    between atoms: _305  and  _306
REMARK  131  A    between atoms: _309  and  _311
REMARK  132  A    between atoms: _311  and  _312
REMARK  133  A    between atoms: _311  and  _314
REMARK  134  A    between atoms: _314  and  _315
REMARK  135  A    between atoms: _315  and  _316
REMARK  136  A    between atoms: _321  and  _323
REMARK  137  A    between atoms: _323  and  _324
REMARK  138  A    between atoms: _323  and  _326
REMARK  139  A    between atoms: _326  and  _327
REMARK  140  A    between atoms: _333  and  _335
REMARK  141  A    between atoms: _335  and  _336
REMARK  142  A    between atoms: _335  and  _338
REMARK  143  A    between atoms: _340  and  _342
REMARK  144  A    between atoms: _342  and  _343
REMARK  145  A    between atoms: _342  and  _345
REMARK  146  A    between atoms: _345  and  _346
REMARK  147  A    between atoms: _346  and  _347
REMARK  148  A    between atoms: _349  and  _351
REMARK  149  A    between atoms: _351  and  _352
REMARK  150  A    between atoms: _351  and  _354
REMARK  151  A    between atoms: _354  and  _355
REMARK  152  A    between atoms: _360  and  _362
REMARK  153  A    between atoms: _362  and  _363
REMARK  154  A    between atoms: _365  and  _367
REMARK  155  A    between atoms: _367  and  _368
REMARK  156  A    between atoms: _367  and  _370
REMARK  157  A    between atoms: _373  and  _375
REMARK  158  A    between atoms: _375  and  _376
REMARK  159  A    between atoms: _375  and  _378
REMARK  160  A    between atoms: _378  and  _379
REMARK  161  A    between atoms: _379  and  _380
REMARK  162  A    between atoms: _383  and  _385
REMARK  163  A    between atoms: _385  and  _386
REMARK  164  A    between atoms: _385  and  _388
REMARK  165  A    between atoms: _388  and  _389
REMARK  166  A    between atoms: _392  and  _394
REMARK  167  A    between atoms: _394  and  _395
REMARK  168  A    between atoms: _394  and  _397
REMARK  169  A    between atoms: _397  and  _398
REMARK  170  A    between atoms: _400  and  _402
REMARK  171  A    between atoms: _402  and  _403
REMARK  172  A    between atoms: _402  and  _405
REMARK  173  A    between atoms: _405  and  _406
REMARK  174  A    between atoms: _416  and  _418
REMARK  175  A    between atoms: _418  and  _419
REMARK  176  A    between atoms: _418  and  _421
REMARK  177  A    between atoms: _421  and  _422
REMARK  178  A    between atoms: _424  and  _426
REMARK  179  A    between atoms: _426  and  _427
REMARK  180  A    between atoms: _426  and  _429
REMARK  181  A    between atoms: _429  and  _430
REMARK  182  A    between atoms: _430  and  _431
REMARK  183  A    between atoms: _434  and  _436
REMARK  184  A    between atoms: _436  and  _437
REMARK  185  A    between atoms: _436  and  _439
REMARK  186  A    between atoms: _439  and  _440
REMARK  187  A    between atoms: _440  and  _441
REMARK  188  A    between atoms: _441  and  _442
REMARK                            x       y       z     vdW  Elec       q    Type
REMARK                         _______ _______ _______ _____ _____    ______ ____
ROOT
ATOM      1  O   HOH     1      -7.191 -31.035 -34.571  0.00  0.00    +0.000 OA
ENDROOT
TORSDOF 0
REMARK  Name = ../refined-set-2016/3t08/3t08_pocket.pdb
REMARK  188 active torsions:
REMARK  status: ('A' for Active; 'I' for Inactive)
REMARK    1  A    between atoms: _1  and  _3
REMARK    2  A    between atoms: _3  and  _4
REMARK    3  A    between atoms: _3  and  _6
REMARK    4  A    between atoms: _6  and  _7
REMARK    5  A    between atoms: _12  and  _13
REMARK    6  A    between atoms: _15  and  _17
REMARK    7  A    between atoms: _17  and  _18
REMARK    8  A    between atoms: _17  and  _20
REMARK    9  A    between atoms: _20  and  _21
REMARK   10  A    between atoms: _26  and  _28
REMARK   11  A    between atoms: _28  and  _29
REMARK   12  A    between atoms: _28  and  _31
REMARK   13  A    between atoms: _34  and  _36
REMARK   14  A    between atoms: _36  and  _37
REMARK   15  A    between atoms: _36  and  _39
REMARK   16  A    between atoms: _39  and  _40
REMARK   17  A    between atoms: _43  and  _45
REMARK   18  A    between atoms: _45  and  _46
REMARK   19  A    between atoms: _45  and  _48
REMARK   20  A    between atoms: _48  and  _49
REMARK   21  A    between atoms: _49  and  _50
REMARK   22  A    between atoms: _55  and  _57
REMARK   23  A    between atoms: _57  and  _58
REMARK   24  A    between atoms: _57  and  _60
REMARK   25  A    between atoms: _60  and  _61
REMARK   26  A    between atoms: _64  and  _66
REMARK   27  A    between atoms: _66  and  _67
REMARK   28  A    between atoms: _66  and  _69
REMARK   29  A    between atoms: _69  and  _70
REMARK   30  A    between atoms: _70  and  _71
REMARK   31  A    between atoms: _73  and  _75
REMARK   32  A    between atoms: _75  and  _76
REMARK   33  A    between atoms: _75  and  _78
REMARK   34  A    between atoms: _78  and  _79
REMARK   35  A    between atoms: _84  and  _86
REMARK   36  A    between atoms: _86  and  _87
REMARK   37  A    between atoms: _86  and  _89
REMARK   38  A    between atoms: _89  and  _90
REMARK   39  A    between atoms: _95  and  _97
REMARK   40  A    between atoms: _97  and  _98
REMARK   41  A    between atoms: _97  and  _100
REMARK   42  A    between atoms: _100  and  _101
REMARK   43  A    between atoms: _101  and  _102
REMARK   44  A    between atoms: _102  and  _103
REMARK   45  A    between atoms: _112  and  _114
REMARK   46  A    between atoms: _114  and  _115
REMARK   47  A    between atoms: _114  and  _117
REMARK   48  A    between atoms: _117  and  _118
REMARK   49  A    between atoms: _123  and  _125
REMARK   50  A    between atoms: _125  and  _126
REMARK   51  A    between atoms: _125  and  _128
REMARK   52  A    between atoms: _128  and  _129
REMARK   53  A    between atoms: _129  and  _130
REMARK   54  A    between atoms: _133  and  _135
REMARK   55  A    between atoms: _135  and  _136
REMARK   56  A    between atoms: _135  and  _138
REMARK   57  A    between atoms: _138  and  _139
REMARK   58  A    between atoms: _140  and  MG_451
REMARK   59  A    between atoms: _144  and  _146
REMARK   60  A    between atoms: _146  and  _147
REMARK   61  A    between atoms: _146  and  _149
REMARK   62  A    between atoms: _149  and  _150
REMARK   63  A    between atoms: _150  and  _151
REMARK   64  A    between atoms: _153  and  _155
REMARK   65  A    between atoms: _155  and  _156
REMARK   66  A    between atoms: _155  and  _158
REMARK   67  A    between atoms: _158  and  _159
REMARK   68  A    between atoms: _164  and  _166
REMARK   69  A    between atoms: _166  and  _167
REMARK   70  A    between atoms: _166  and  _169
REMARK   71  A    between atoms: _169  and  _170
REMARK   72  A    between atoms: _170  and  _171
REMARK   73  A    between atoms: _174  and  _176
REMARK   74  A    between atoms: _176  and  _177
REMARK   75  A    between atoms: _176  and  _179
REMARK   76  A    between atoms: _179  and  _180
REMARK   77  A    between atoms: _180  and  _181
REMARK   78  A    between atoms: _184  and  _186
REMARK   79  A    between atoms: _186  and  _187
REMARK   80  A    between atoms: _186  and  _189
REMARK   81  A    between atoms: _189  and  _190
REMARK   82  A    between atoms: _190  and  _191
REMARK   83  A    between atoms: _193  and  _195
REMARK   84  A    between atoms: _195  and  _196
REMARK   85  A    between atoms: _195  and  _198
REMARK   86  A    between atoms: _198  and  _199
REMARK   87  A    between atoms: _204  and  _205
REMARK   88  A    between atoms: _207  and  _209
REMARK   89  A    between atoms: _209  and  _210
REMARK   90  A    between atoms: _209  and  _212
REMARK   91  A    between atoms: _212  and  _213
REMARK   92  A    between atoms: _213  and  _214
REMARK   93  A    between atoms: _214  and  _215
REMARK   94  A    between atoms: _215  and  _216
REMARK   95  A    between atoms: _220  and  _222
REMARK   96  A    between atoms: _222  and  _223
REMARK   97  A    between atoms: _222  and  _225
REMARK   98  A    between atoms: _227  and  _229
REMARK   99  A    between atoms: _229  and  _230
REMARK  100  A    between atoms: _229  and  _232
REMARK  101  A    between atoms: _232  and  _233
REMARK  102  A    between atoms: _233  and  _234
REMARK  103  A    between atoms: _237  and  _239
REMARK  104  A    between atoms: _239  and  _240
REMARK  105  A    between atoms: _239  and  _242
REMARK  106  A    between atoms: _242  and  _243
REMARK  107  A    between atoms: _248  and  _250
REMARK  108  A    between atoms: _250  and  _251
REMARK  109  A    between atoms: _254  and  _256
REMARK  110  A    between atoms: _256  and  _257
REMARK  111  A    between atoms: _256  and  _259
REMARK  112  A    between atoms: _259  and  _260
REMARK  113  A    between atoms: _260  and  _261
REMARK  114  A    between atoms: _263  and  _265
REMARK  115  A    between atoms: _265  and  _266
REMARK  116  A    between atoms: _265  and  _268
REMARK  117  A    between atoms: _268  and  _269
REMARK  118  A    between atoms: _279  and  _281
REMARK  119  A    between atoms: _281  and  _282
REMARK  120  A    between atoms: _281  and  _284
REMARK  121  A    between atoms: _284  and  _285
REMARK  122  A    between atoms: _288  and  _290
REMARK  123  A    between atoms: _290  and  _291
REMARK  124  A    between atoms: _290  and  _293
REMARK  125  A    between atoms: _293  and  _294
REMARK  126  A    between atoms: _294  and  _295
REMARK  127  A    between atoms: _300  and  _302
REMARK  128  A    between atoms: _302  and  _303
REMARK  129  A    between atoms: _302  and  _305
REMARK  130  A    between atoms: _305  and  _306
REMARK  131  A    between atoms: _309  and  _311
REMARK  132  A    between atoms: _311  and  _312
REMARK  133  A    between atoms: _311  and  _314
REMARK  134  A    between atoms: _314  and  _315
REMARK  135  A    between atoms: _315  and  _316
REMARK  136  A    between atoms: _321  and  _323
REMARK  137  A    between atoms: _323  and  _324
REMARK  138  A    between atoms: _323  and  _326
REMARK  139  A    between atoms: _326  and  _327
REMARK  140  A    between atoms: _333  and  _335
REMARK  141  A    between atoms: _335  and  _336
REMARK  142  A    between atoms: _335  and  _338
REMARK  143  A    between atoms: _340  and  _342
REMARK  144  A    between atoms: _342  and  _343
REMARK  145  A    between atoms: _342  and  _345
REMARK  146  A    between atoms: _345  and  _346
REMARK  147  A    between atoms: _346  and  _347
REMARK  148  A    between atoms: _349  and  _351
REMARK  149  A    between atoms: _351  and  _352
REMARK  150  A    between atoms: _351  and  _354
REMARK  151  A    between atoms: _354  and  _355
REMARK  152  A    between atoms: _360  and  _362
REMARK  153  A    between atoms: _362  and  _363
REMARK  154  A    between atoms: _365  and  _367
REMARK  155  A    between atoms: _367  and  _368
REMARK  156  A    between atoms: _367  and  _370
REMARK  157  A    between atoms: _373  and  _375
REMARK  158  A    between atoms: _375  and  _376
REMARK  159  A    between atoms: _375  and  _378
REMARK  160  A    between atoms: _378  and  _379
REMARK  161  A    between atoms: _379  and  _380
REMARK  162  A    between atoms: _383  and  _385
REMARK  163  A    between atoms: _385  and  _386
REMARK  164  A    between atoms: _385  and  _388
REMARK  165  A    between atoms: _388  and  _389
REMARK  166  A    between atoms: _392  and  _394
REMARK  167  A    between atoms: _394  and  _395
REMARK  168  A    between atoms: _394  and  _397
REMARK  169  A    between atoms: _397  and  _398
REMARK  170  A    between atoms: _400  and  _402
REMARK  171  A    between atoms: _402  and  _403
REMARK  172  A    between atoms: _402  and  _405
REMARK  173  A    between atoms: _405  and  _406
REMARK  174  A    between atoms: _416  and  _418
REMARK  175  A    between atoms: _418  and  _419
REMARK  176  A    between atoms: _418  and  _421
REMARK  177  A    between atoms: _421  and  _422
REMARK  178  A    between atoms: _424  and  _426
REMARK  179  A    between atoms: _426  and  _427
REMARK  180  A    between atoms: _426  and  _429
REMARK  181  A    between atoms: _429  and  _430
REMARK  182  A    between atoms: _430  and  _431
REMARK  183  A    between atoms: _434  and  _436
REMARK  184  A    between atoms: _436  and  _437
REMARK  185  A    between atoms: _436  and  _439
REMARK  186  A    between atoms: _439  and  _440
REMARK  187  A    between atoms: _440  and  _441
REMARK  188  A    between atoms: _441  and  _442
REMARK                            x       y       z     vdW  Elec       q    Type
REMARK                         _______ _______ _______ _____ _____    ______ ____
ROOT
ATOM      1  O   HOH     1     -12.341 -25.241 -18.346  0.00  0.00    +0.000 OA
ENDROOT
TORSDOF 0
REMARK  Name = ../refined-set-2016/3t08/3t08_pocket.pdb
REMARK  188 active torsions:
REMARK  status: ('A' for Active; 'I' for Inactive)
REMARK    1  A    between atoms: _1  and  _3
REMARK    2  A    between atoms: _3  and  _4
REMARK    3  A    between atoms: _3  and  _6
REMARK    4  A    between atoms: _6  and  _7
REMARK    5  A    between atoms: _12  and  _13
REMARK    6  A    between atoms: _15  and  _17
REMARK    7  A    between atoms: _17  and  _18
REMARK    8  A    between atoms: _17  and  _20
REMARK    9  A    between atoms: _20  and  _21
REMARK   10  A    between atoms: _26  and  _28
REMARK   11  A    between atoms: _28  and  _29
REMARK   12  A    between atoms: _28  and  _31
REMARK   13  A    between atoms: _34  and  _36
REMARK   14  A    between atoms: _36  and  _37
REMARK   15  A    between atoms: _36  and  _39
REMARK   16  A    between atoms: _39  and  _40
REMARK   17  A    between atoms: _43  and  _45
REMARK   18  A    between atoms: _45  and  _46
REMARK   19  A    between atoms: _45  and  _48
REMARK   20  A    between atoms: _48  and  _49
REMARK   21  A    between atoms: _49  and  _50
REMARK   22  A    between atoms: _55  and  _57
REMARK   23  A    between atoms: _57  and  _58
REMARK   24  A    between atoms: _57  and  _60
REMARK   25  A    between atoms: _60  and  _61
REMARK   26  A    between atoms: _64  and  _66
REMARK   27  A    between atoms: _66  and  _67
REMARK   28  A    between atoms: _66  and  _69
REMARK   29  A    between atoms: _69  and  _70
REMARK   30  A    between atoms: _70  and  _71
REMARK   31  A    between atoms: _73  and  _75
REMARK   32  A    between atoms: _75  and  _76
REMARK   33  A    between atoms: _75  and  _78
REMARK   34  A    between atoms: _78  and  _79
REMARK   35  A    between atoms: _84  and  _86
REMARK   36  A    between atoms: _86  and  _87
REMARK   37  A    between atoms: _86  and  _89
REMARK   38  A    between atoms: _89  and  _90
REMARK   39  A    between atoms: _95  and  _97
REMARK   40  A    between atoms: _97  and  _98
REMARK   41  A    between atoms: _97  and  _100
REMARK   42  A    between atoms: _100  and  _101
REMARK   43  A    between atoms: _101  and  _102
REMARK   44  A    between atoms: _102  and  _103
REMARK   45  A    between atoms: _112  and  _114
REMARK   46  A    between atoms: _114  and  _115
REMARK   47  A    between atoms: _114  and  _117
REMARK   48  A    between atoms: _117  and  _118
REMARK   49  A    between atoms: _123  and  _125
REMARK   50  A    between atoms: _125  and  _126
REMARK   51  A    between atoms: _125  and  _128
REMARK   52  A    between atoms: _128  and  _129
REMARK   53  A    between atoms: _129  and  _130
REMARK   54  A    between atoms: _133  and  _135
REMARK   55  A    between atoms: _135  and  _136
REMARK   56  A    between atoms: _135  and  _138
REMARK   57  A    between atoms: _138  and  _139
REMARK   58  A    between atoms: _140  and  MG_451
REMARK   59  A    between atoms: _144  and  _146
REMARK   60  A    between atoms: _146  and  _147
REMARK   61  A    between atoms: _146  and  _149
REMARK   62  A    between atoms: _149  and  _150
REMARK   63  A    between atoms: _150  and  _151
REMARK   64  A    between atoms: _153  and  _155
REMARK   65  A    between atoms: _155  and  _156
REMARK   66  A    between atoms: _155  and  _158
REMARK   67  A    between atoms: _158  and  _159
REMARK   68  A    between atoms: _164  and  _166
REMARK   69  A    between atoms: _166  and  _167
REMARK   70  A    between atoms: _166  and  _169
REMARK   71  A    between atoms: _169  and  _170
REMARK   72  A    between atoms: _170  and  _171
REMARK   73  A    between atoms: _174  and  _176
REMARK   74  A    between atoms: _176  and  _177
REMARK   75  A    between atoms: _176  and  _179
REMARK   76  A    between atoms: _179  and  _180
REMARK   77  A    between atoms: _180  and  _181
REMARK   78  A    between atoms: _184  and  _186
REMARK   79  A    between atoms: _186  and  _187
REMARK   80  A    between atoms: _186  and  _189
REMARK   81  A    between atoms: _189  and  _190
REMARK   82  A    between atoms: _190  and  _191
REMARK   83  A    between atoms: _193  and  _195
REMARK   84  A    between atoms: _195  and  _196
REMARK   85  A    between atoms: _195  and  _198
REMARK   86  A    between atoms: _198  and  _199
REMARK   87  A    between atoms: _204  and  _205
REMARK   88  A    between atoms: _207  and  _209
REMARK   89  A    between atoms: _209  and  _210
REMARK   90  A    between atoms: _209  and  _212
REMARK   91  A    between atoms: _212  and  _213
REMARK   92  A    between atoms: _213  and  _214
REMARK   93  A    between atoms: _214  and  _215
REMARK   94  A    between atoms: _215  and  _216
REMARK   95  A    between atoms: _220  and  _222
REMARK   96  A    between atoms: _222  and  _223
REMARK   97  A    between atoms: _222  and  _225
REMARK   98  A    between atoms: _227  and  _229
REMARK   99  A    between atoms: _229  and  _230
REMARK  100  A    between atoms: _229  and  _232
REMARK  101  A    between atoms: _232  and  _233
REMARK  102  A    between atoms: _233  and  _234
REMARK  103  A    between atoms: _237  and  _239
REMARK  104  A    between atoms: _239  and  _240
REMARK  105  A    between atoms: _239  and  _242
REMARK  106  A    between atoms: _242  and  _243
REMARK  107  A    between atoms: _248  and  _250
REMARK  108  A    between atoms: _250  and  _251
REMARK  109  A    between atoms: _254  and  _256
REMARK  110  A    between atoms: _256  and  _257
REMARK  111  A    between atoms: _256  and  _259
REMARK  112  A    between atoms: _259  and  _260
REMARK  113  A    between atoms: _260  and  _261
REMARK  114  A    between atoms: _263  and  _265
REMARK  115  A    between atoms: _265  and  _266
REMARK  116  A    between atoms: _265  and  _268
REMARK  117  A    between atoms: _268  and  _269
REMARK  118  A    between atoms: _279  and  _281
REMARK  119  A    between atoms: _281  and  _282
REMARK  120  A    between atoms: _281  and  _284
REMARK  121  A    between atoms: _284  and  _285
REMARK  122  A    between atoms: _288  and  _290
REMARK  123  A    between atoms: _290  and  _291
REMARK  124  A    between atoms: _290  and  _293
REMARK  125  A    between atoms: _293  and  _294
REMARK  126  A    between atoms: _294  and  _295
REMARK  127  A    between atoms: _300  and  _302
REMARK  128  A    between atoms: _302  and  _303
REMARK  129  A    between atoms: _302  and  _305
REMARK  130  A    between atoms: _305  and  _306
REMARK  131  A    between atoms: _309  and  _311
REMARK  132  A    between atoms: _311  and  _312
REMARK  133  A    between atoms: _311  and  _314
REMARK  134  A    between atoms: _314  and  _315
REMARK  135  A    between atoms: _315  and  _316
REMARK  136  A    between atoms: _321  and  _323
REMARK  137  A    between atoms: _323  and  _324
REMARK  138  A    between atoms: _323  and  _326
REMARK  139  A    between atoms: _326  and  _327
REMARK  140  A    between atoms: _333  and  _335
REMARK  141  A    between atoms: _335  and  _336
REMARK  142  A    between atoms: _335  and  _338
REMARK  143  A    between atoms: _340  and  _342
REMARK  144  A    between atoms: _342  and  _343
REMARK  145  A    between atoms: _342  and  _345
REMARK  146  A    between atoms: _345  and  _346
REMARK  147  A    between atoms: _346  and  _347
REMARK  148  A    between atoms: _349  and  _351
REMARK  149  A    between atoms: _351  and  _352
REMARK  150  A    between atoms: _351  and  _354
REMARK  151  A    between atoms: _354  and  _355
REMARK  152  A    between atoms: _360  and  _362
REMARK  153  A    between atoms: _362  and  _363
REMARK  154  A    between atoms: _365  and  _367
REMARK  155  A    between atoms: _367  and  _368
REMARK  156  A    between atoms: _367  and  _370
REMARK  157  A    between atoms: _373  and  _375
REMARK  158  A    between atoms: _375  and  _376
REMARK  159  A    between atoms: _375  and  _378
REMARK  160  A    between atoms: _378  and  _379
REMARK  161  A    between atoms: _379  and  _380
REMARK  162  A    between atoms: _383  and  _385
REMARK  163  A    between atoms: _385  and  _386
REMARK  164  A    between atoms: _385  and  _388
REMARK  165  A    between atoms: _388  and  _389
REMARK  166  A    between atoms: _392  and  _394
REMARK  167  A    between atoms: _394  and  _395
REMARK  168  A    between atoms: _394  and  _397
REMARK  169  A    between atoms: _397  and  _398
REMARK  170  A    between atoms: _400  and  _402
REMARK  171  A    between atoms: _402  and  _403
REMARK  172  A    between atoms: _402  and  _405
REMARK  173  A    between atoms: _405  and  _406
REMARK  174  A    between atoms: _416  and  _418
REMARK  175  A    between atoms: _418  and  _419
REMARK  176  A    between atoms: _418  and  _421
REMARK  177  A    between atoms: _421  and  _422
REMARK  178  A    between atoms: _424  and  _426
REMARK  179  A    between atoms: _426  and  _427
REMARK  180  A    between atoms: _426  and  _429
REMARK  181  A    between atoms: _429  and  _430
REMARK  182  A    between atoms: _430  and  _431
REMARK  183  A    between atoms: _434  and  _436
REMARK  184  A    between atoms: _436  and  _437
REMARK  185  A    between atoms: _436  and  _439
REMARK  186  A    between atoms: _439  and  _440
REMARK  187  A    between atoms: _440  and  _441
REMARK  188  A    between atoms: _441  and  _442
REMARK                            x       y       z     vdW  Elec       q    Type
REMARK                         _______ _______ _______ _____ _____    ______ ____
ROOT
ATOM      1  O   HOH     1      -8.392 -25.140 -19.437  0.00  0.00    +0.000 OA
ENDROOT
TORSDOF 0
REMARK  Name = ../refined-set-2016/3t08/3t08_pocket.pdb
REMARK  188 active torsions:
REMARK  status: ('A' for Active; 'I' for Inactive)
REMARK    1  A    between atoms: _1  and  _3
REMARK    2  A    between atoms: _3  and  _4
REMARK    3  A    between atoms: _3  and  _6
REMARK    4  A    between atoms: _6  and  _7
REMARK    5  A    between atoms: _12  and  _13
REMARK    6  A    between atoms: _15  and  _17
REMARK    7  A    between atoms: _17  and  _18
REMARK    8  A    between atoms: _17  and  _20
REMARK    9  A    between atoms: _20  and  _21
REMARK   10  A    between atoms: _26  and  _28
REMARK   11  A    between atoms: _28  and  _29
REMARK   12  A    between atoms: _28  and  _31
REMARK   13  A    between atoms: _34  and  _36
REMARK   14  A    between atoms: _36  and  _37
REMARK   15  A    between atoms: _36  and  _39
REMARK   16  A    between atoms: _39  and  _40
REMARK   17  A    between atoms: _43  and  _45
REMARK   18  A    between atoms: _45  and  _46
REMARK   19  A    between atoms: _45  and  _48
REMARK   20  A    between atoms: _48  and  _49
REMARK   21  A    between atoms: _49  and  _50
REMARK   22  A    between atoms: _55  and  _57
REMARK   23  A    between atoms: _57  and  _58
REMARK   24  A    between atoms: _57  and  _60
REMARK   25  A    between atoms: _60  and  _61
REMARK   26  A    between atoms: _64  and  _66
REMARK   27  A    between atoms: _66  and  _67
REMARK   28  A    between atoms: _66  and  _69
REMARK   29  A    between atoms: _69  and  _70
REMARK   30  A    between atoms: _70  and  _71
REMARK   31  A    between atoms: _73  and  _75
REMARK   32  A    between atoms: _75  and  _76
REMARK   33  A    between atoms: _75  and  _78
REMARK   34  A    between atoms: _78  and  _79
REMARK   35  A    between atoms: _84  and  _86
REMARK   36  A    between atoms: _86  and  _87
REMARK   37  A    between atoms: _86  and  _89
REMARK   38  A    between atoms: _89  and  _90
REMARK   39  A    between atoms: _95  and  _97
REMARK   40  A    between atoms: _97  and  _98
REMARK   41  A    between atoms: _97  and  _100
REMARK   42  A    between atoms: _100  and  _101
REMARK   43  A    between atoms: _101  and  _102
REMARK   44  A    between atoms: _102  and  _103
REMARK   45  A    between atoms: _112  and  _114
REMARK   46  A    between atoms: _114  and  _115
REMARK   47  A    between atoms: _114  and  _117
REMARK   48  A    between atoms: _117  and  _118
REMARK   49  A    between atoms: _123  and  _125
REMARK   50  A    between atoms: _125  and  _126
REMARK   51  A    between atoms: _125  and  _128
REMARK   52  A    between atoms: _128  and  _129
REMARK   53  A    between atoms: _129  and  _130
REMARK   54  A    between atoms: _133  and  _135
REMARK   55  A    between atoms: _135  and  _136
REMARK   56  A    between atoms: _135  and  _138
REMARK   57  A    between atoms: _138  and  _139
REMARK   58  A    between atoms: _140  and  MG_451
REMARK   59  A    between atoms: _144  and  _146
REMARK   60  A    between atoms: _146  and  _147
REMARK   61  A    between atoms: _146  and  _149
REMARK   62  A    between atoms: _149  and  _150
REMARK   63  A    between atoms: _150  and  _151
REMARK   64  A    between atoms: _153  and  _155
REMARK   65  A    between atoms: _155  and  _156
REMARK   66  A    between atoms: _155  and  _158
REMARK   67  A    between atoms: _158  and  _159
REMARK   68  A    between atoms: _164  and  _166
REMARK   69  A    between atoms: _166  and  _167
REMARK   70  A    between atoms: _166  and  _169
REMARK   71  A    between atoms: _169  and  _170
REMARK   72  A    between atoms: _170  and  _171
REMARK   73  A    between atoms: _174  and  _176
REMARK   74  A    between atoms: _176  and  _177
REMARK   75  A    between atoms: _176  and  _179
REMARK   76  A    between atoms: _179  and  _180
REMARK   77  A    between atoms: _180  and  _181
REMARK   78  A    between atoms: _184  and  _186
REMARK   79  A    between atoms: _186  and  _187
REMARK   80  A    between atoms: _186  and  _189
REMARK   81  A    between atoms: _189  and  _190
REMARK   82  A    between atoms: _190  and  _191
REMARK   83  A    between atoms: _193  and  _195
REMARK   84  A    between atoms: _195  and  _196
REMARK   85  A    between atoms: _195  and  _198
REMARK   86  A    between atoms: _198  and  _199
REMARK   87  A    between atoms: _204  and  _205
REMARK   88  A    between atoms: _207  and  _209
REMARK   89  A    between atoms: _209  and  _210
REMARK   90  A    between atoms: _209  and  _212
REMARK   91  A    between atoms: _212  and  _213
REMARK   92  A    between atoms: _213  and  _214
REMARK   93  A    between atoms: _214  and  _215
REMARK   94  A    between atoms: _215  and  _216
REMARK   95  A    between atoms: _220  and  _222
REMARK   96  A    between atoms: _222  and  _223
REMARK   97  A    between atoms: _222  and  _225
REMARK   98  A    between atoms: _227  and  _229
REMARK   99  A    between atoms: _229  and  _230
REMARK  100  A    between atoms: _229  and  _232
REMARK  101  A    between atoms: _232  and  _233
REMARK  102  A    between atoms: _233  and  _234
REMARK  103  A    between atoms: _237  and  _239
REMARK  104  A    between atoms: _239  and  _240
REMARK  105  A    between atoms: _239  and  _242
REMARK  106  A    between atoms: _242  and  _243
REMARK  107  A    between atoms: _248  and  _250
REMARK  108  A    between atoms: _250  and  _251
REMARK  109  A    between atoms: _254  and  _256
REMARK  110  A    between atoms: _256  and  _257
REMARK  111  A    between atoms: _256  and  _259
REMARK  112  A    between atoms: _259  and  _260
REMARK  113  A    between atoms: _260  and  _261
REMARK  114  A    between atoms: _263  and  _265
REMARK  115  A    between atoms: _265  and  _266
REMARK  116  A    between atoms: _265  and  _268
REMARK  117  A    between atoms: _268  and  _269
REMARK  118  A    between atoms: _279  and  _281
REMARK  119  A    between atoms: _281  and  _282
REMARK  120  A    between atoms: _281  and  _284
REMARK  121  A    between atoms: _284  and  _285
REMARK  122  A    between atoms: _288  and  _290
REMARK  123  A    between atoms: _290  and  _291
REMARK  124  A    between atoms: _290  and  _293
REMARK  125  A    between atoms: _293  and  _294
REMARK  126  A    between atoms: _294  and  _295
REMARK  127  A    between atoms: _300  and  _302
REMARK  128  A    between atoms: _302  and  _303
REMARK  129  A    between atoms: _302  and  _305
REMARK  130  A    between atoms: _305  and  _306
REMARK  131  A    between atoms: _309  and  _311
REMARK  132  A    between atoms: _311  and  _312
REMARK  133  A    between atoms: _311  and  _314
REMARK  134  A    between atoms: _314  and  _315
REMARK  135  A    between atoms: _315  and  _316
REMARK  136  A    between atoms: _321  and  _323
REMARK  137  A    between atoms: _323  and  _324
REMARK  138  A    between atoms: _323  and  _326
REMARK  139  A    between atoms: _326  and  _327
REMARK  140  A    between atoms: _333  and  _335
REMARK  141  A    between atoms: _335  and  _336
REMARK  142  A    between atoms: _335  and  _338
REMARK  143  A    between atoms: _340  and  _342
REMARK  144  A    between atoms: _342  and  _343
REMARK  145  A    between atoms: _342  and  _345
REMARK  146  A    between atoms: _345  and  _346
REMARK  147  A    between atoms: _346  and  _347
REMARK  148  A    between atoms: _349  and  _351
REMARK  149  A    between atoms: _351  and  _352
REMARK  150  A    between atoms: _351  and  _354
REMARK  151  A    between atoms: _354  and  _355
REMARK  152  A    between atoms: _360  and  _362
REMARK  153  A    between atoms: _362  and  _363
REMARK  154  A    between atoms: _365  and  _367
REMARK  155  A    between atoms: _367  and  _368
REMARK  156  A    between atoms: _367  and  _370
REMARK  157  A    between atoms: _373  and  _375
REMARK  158  A    between atoms: _375  and  _376
REMARK  159  A    between atoms: _375  and  _378
REMARK  160  A    between atoms: _378  and  _379
REMARK  161  A    between atoms: _379  and  _380
REMARK  162  A    between atoms: _383  and  _385
REMARK  163  A    between atoms: _385  and  _386
REMARK  164  A    between atoms: _385  and  _388
REMARK  165  A    between atoms: _388  and  _389
REMARK  166  A    between atoms: _392  and  _394
REMARK  167  A    between atoms: _394  and  _395
REMARK  168  A    between atoms: _394  and  _397
REMARK  169  A    between atoms: _397  and  _398
REMARK  170  A    between atoms: _400  and  _402
REMARK  171  A    between atoms: _402  and  _403
REMARK  172  A    between atoms: _402  and  _405
REMARK  173  A    between atoms: _405  and  _406
REMARK  174  A    between atoms: _416  and  _418
REMARK  175  A    between atoms: _418  and  _419
REMARK  176  A    between atoms: _418  and  _421
REMARK  177  A    between atoms: _421  and  _422
REMARK  178  A    between atoms: _424  and  _426
REMARK  179  A    between atoms: _426  and  _427
REMARK  180  A    between atoms: _426  and  _429
REMARK  181  A    between atoms: _429  and  _430
REMARK  182  A    between atoms: _430  and  _431
REMARK  183  A    between atoms: _434  and  _436
REMARK  184  A    between atoms: _436  and  _437
REMARK  185  A    between atoms: _436  and  _439
REMARK  186  A    between atoms: _439  and  _440
REMARK  187  A    between atoms: _440  and  _441
REMARK  188  A    between atoms: _441  and  _442
REMARK                            x       y       z     vdW  Elec       q    Type
REMARK                         _______ _______ _______ _____ _____    ______ ____
ROOT
ATOM      1  O   HOH     1      -7.432 -31.615 -32.056  0.00  0.00    +0.000 OA
ENDROOT
TORSDOF 0
REMARK  Name = ../refined-set-2016/3t08/3t08_pocket.pdb
REMARK  188 active torsions:
REMARK  status: ('A' for Active; 'I' for Inactive)
REMARK    1  A    between atoms: _1  and  _3
REMARK    2  A    between atoms: _3  and  _4
REMARK    3  A    between atoms: _3  and  _6
REMARK    4  A    between atoms: _6  and  _7
REMARK    5  A    between atoms: _12  and  _13
REMARK    6  A    between atoms: _15  and  _17
REMARK    7  A    between atoms: _17  and  _18
REMARK    8  A    between atoms: _17  and  _20
REMARK    9  A    between atoms: _20  and  _21
REMARK   10  A    between atoms: _26  and  _28
REMARK   11  A    between atoms: _28  and  _29
REMARK   12  A    between atoms: _28  and  _31
REMARK   13  A    between atoms: _34  and  _36
REMARK   14  A    between atoms: _36  and  _37
REMARK   15  A    between atoms: _36  and  _39
REMARK   16  A    between atoms: _39  and  _40
REMARK   17  A    between atoms: _43  and  _45
REMARK   18  A    between atoms: _45  and  _46
REMARK   19  A    between atoms: _45  and  _48
REMARK   20  A    between atoms: _48  and  _49
REMARK   21  A    between atoms: _49  and  _50
REMARK   22  A    between atoms: _55  and  _57
REMARK   23  A    between atoms: _57  and  _58
REMARK   24  A    between atoms: _57  and  _60
REMARK   25  A    between atoms: _60  and  _61
REMARK   26  A    between atoms: _64  and  _66
REMARK   27  A    between atoms: _66  and  _67
REMARK   28  A    between atoms: _66  and  _69
REMARK   29  A    between atoms: _69  and  _70
REMARK   30  A    between atoms: _70  and  _71
REMARK   31  A    between atoms: _73  and  _75
REMARK   32  A    between atoms: _75  and  _76
REMARK   33  A    between atoms: _75  and  _78
REMARK   34  A    between atoms: _78  and  _79
REMARK   35  A    between atoms: _84  and  _86
REMARK   36  A    between atoms: _86  and  _87
REMARK   37  A    between atoms: _86  and  _89
REMARK   38  A    between atoms: _89  and  _90
REMARK   39  A    between atoms: _95  and  _97
REMARK   40  A    between atoms: _97  and  _98
REMARK   41  A    between atoms: _97  and  _100
REMARK   42  A    between atoms: _100  and  _101
REMARK   43  A    between atoms: _101  and  _102
REMARK   44  A    between atoms: _102  and  _103
REMARK   45  A    between atoms: _112  and  _114
REMARK   46  A    between atoms: _114  and  _115
REMARK   47  A    between atoms: _114  and  _117
REMARK   48  A    between atoms: _117  and  _118
REMARK   49  A    between atoms: _123  and  _125
REMARK   50  A    between atoms: _125  and  _126
REMARK   51  A    between atoms: _125  and  _128
REMARK   52  A    between atoms: _128  and  _129
REMARK   53  A    between atoms: _129  and  _130
REMARK   54  A    between atoms: _133  and  _135
REMARK   55  A    between atoms: _135  and  _136
REMARK   56  A    between atoms: _135  and  _138
REMARK   57  A    between atoms: _138  and  _139
REMARK   58  A    between atoms: _140  and  MG_451
REMARK   59  A    between atoms: _144  and  _146
REMARK   60  A    between atoms: _146  and  _147
REMARK   61  A    between atoms: _146  and  _149
REMARK   62  A    between atoms: _149  and  _150
REMARK   63  A    between atoms: _150  and  _151
REMARK   64  A    between atoms: _153  and  _155
REMARK   65  A    between atoms: _155  and  _156
REMARK   66  A    between atoms: _155  and  _158
REMARK   67  A    between atoms: _158  and  _159
REMARK   68  A    between atoms: _164  and  _166
REMARK   69  A    between atoms: _166  and  _167
REMARK   70  A    between atoms: _166  and  _169
REMARK   71  A    between atoms: _169  and  _170
REMARK   72  A    between atoms: _170  and  _171
REMARK   73  A    between atoms: _174  and  _176
REMARK   74  A    between atoms: _176  and  _177
REMARK   75  A    between atoms: _176  and  _179
REMARK   76  A    between atoms: _179  and  _180
REMARK   77  A    between atoms: _180  and  _181
REMARK   78  A    between atoms: _184  and  _186
REMARK   79  A    between atoms: _186  and  _187
REMARK   80  A    between atoms: _186  and  _189
REMARK   81  A    between atoms: _189  and  _190
REMARK   82  A    between atoms: _190  and  _191
REMARK   83  A    between atoms: _193  and  _195
REMARK   84  A    between atoms: _195  and  _196
REMARK   85  A    between atoms: _195  and  _198
REMARK   86  A    between atoms: _198  and  _199
REMARK   87  A    between atoms: _204  and  _205
REMARK   88  A    between atoms: _207  and  _209
REMARK   89  A    between atoms: _209  and  _210
REMARK   90  A    between atoms: _209  and  _212
REMARK   91  A    between atoms: _212  and  _213
REMARK   92  A    between atoms: _213  and  _214
REMARK   93  A    between atoms: _214  and  _215
REMARK   94  A    between atoms: _215  and  _216
REMARK   95  A    between atoms: _220  and  _222
REMARK   96  A    between atoms: _222  and  _223
REMARK   97  A    between atoms: _222  and  _225
REMARK   98  A    between atoms: _227  and  _229
REMARK   99  A    between atoms: _229  and  _230
REMARK  100  A    between atoms: _229  and  _232
REMARK  101  A    between atoms: _232  and  _233
REMARK  102  A    between atoms: _233  and  _234
REMARK  103  A    between atoms: _237  and  _239
REMARK  104  A    between atoms: _239  and  _240
REMARK  105  A    between atoms: _239  and  _242
REMARK  106  A    between atoms: _242  and  _243
REMARK  107  A    between atoms: _248  and  _250
REMARK  108  A    between atoms: _250  and  _251
REMARK  109  A    between atoms: _254  and  _256
REMARK  110  A    between atoms: _256  and  _257
REMARK  111  A    between atoms: _256  and  _259
REMARK  112  A    between atoms: _259  and  _260
REMARK  113  A    between atoms: _260  and  _261
REMARK  114  A    between atoms: _263  and  _265
REMARK  115  A    between atoms: _265  and  _266
REMARK  116  A    between atoms: _265  and  _268
REMARK  117  A    between atoms: _268  and  _269
REMARK  118  A    between atoms: _279  and  _281
REMARK  119  A    between atoms: _281  and  _282
REMARK  120  A    between atoms: _281  and  _284
REMARK  121  A    between atoms: _284  and  _285
REMARK  122  A    between atoms: _288  and  _290
REMARK  123  A    between atoms: _290  and  _291
REMARK  124  A    between atoms: _290  and  _293
REMARK  125  A    between atoms: _293  and  _294
REMARK  126  A    between atoms: _294  and  _295
REMARK  127  A    between atoms: _300  and  _302
REMARK  128  A    between atoms: _302  and  _303
REMARK  129  A    between atoms: _302  and  _305
REMARK  130  A    between atoms: _305  and  _306
REMARK  131  A    between atoms: _309  and  _311
REMARK  132  A    between atoms: _311  and  _312
REMARK  133  A    between atoms: _311  and  _314
REMARK  134  A    between atoms: _314  and  _315
REMARK  135  A    between atoms: _315  and  _316
REMARK  136  A    between atoms: _321  and  _323
REMARK  137  A    between atoms: _323  and  _324
REMARK  138  A    between atoms: _323  and  _326
REMARK  139  A    between atoms: _326  and  _327
REMARK  140  A    between atoms: _333  and  _335
REMARK  141  A    between atoms: _335  and  _336
REMARK  142  A    between atoms: _335  and  _338
REMARK  143  A    between atoms: _340  and  _342
REMARK  144  A    between atoms: _342  and  _343
REMARK  145  A    between atoms: _342  and  _345
REMARK  146  A    between atoms: _345  and  _346
REMARK  147  A    between atoms: _346  and  _347
REMARK  148  A    between atoms: _349  and  _351
REMARK  149  A    between atoms: _351  and  _352
REMARK  150  A    between atoms: _351  and  _354
REMARK  151  A    between atoms: _354  and  _355
REMARK  152  A    between atoms: _360  and  _362
REMARK  153  A    between atoms: _362  and  _363
REMARK  154  A    between atoms: _365  and  _367
REMARK  155  A    between atoms: _367  and  _368
REMARK  156  A    between atoms: _367  and  _370
REMARK  157  A    between atoms: _373  and  _375
REMARK  158  A    between atoms: _375  and  _376
REMARK  159  A    between atoms: _375  and  _378
REMARK  160  A    between atoms: _378  and  _379
REMARK  161  A    between atoms: _379  and  _380
REMARK  162  A    between atoms: _383  and  _385
REMARK  163  A    between atoms: _385  and  _386
REMARK  164  A    between atoms: _385  and  _388
REMARK  165  A    between atoms: _388  and  _389
REMARK  166  A    between atoms: _392  and  _394
REMARK  167  A    between atoms: _394  and  _395
REMARK  168  A    between atoms: _394  and  _397
REMARK  169  A    between atoms: _397  and  _398
REMARK  170  A    between atoms: _400  and  _402
REMARK  171  A    between atoms: _402  and  _403
REMARK  172  A    between atoms: _402  and  _405
REMARK  173  A    between atoms: _405  and  _406
REMARK  174  A    between atoms: _416  and  _418
REMARK  175  A    between atoms: _418  and  _419
REMARK  176  A    between atoms: _418  and  _421
REMARK  177  A    between atoms: _421  and  _422
REMARK  178  A    between atoms: _424  and  _426
REMARK  179  A    between atoms: _426  and  _427
REMARK  180  A    between atoms: _426  and  _429
REMARK  181  A    between atoms: _429  and  _430
REMARK  182  A    between atoms: _430  and  _431
REMARK  183  A    between atoms: _434  and  _436
REMARK  184  A    between atoms: _436  and  _437
REMARK  185  A    between atoms: _436  and  _439
REMARK  186  A    between atoms: _439  and  _440
REMARK  187  A    between atoms: _440  and  _441
REMARK  188  A    between atoms: _441  and  _442
REMARK                            x       y       z     vdW  Elec       q    Type
REMARK                         _______ _______ _______ _____ _____    ______ ____
ROOT
ATOM      1  O   HOH     1     -12.322 -19.440 -20.719  0.00  0.00    +0.000 OA
ENDROOT
TORSDOF 0
REMARK  Name = ../refined-set-2016/3t08/3t08_pocket.pdb
REMARK  188 active torsions:
REMARK  status: ('A' for Active; 'I' for Inactive)
REMARK    1  A    between atoms: _1  and  _3
REMARK    2  A    between atoms: _3  and  _4
REMARK    3  A    between atoms: _3  and  _6
REMARK    4  A    between atoms: _6  and  _7
REMARK    5  A    between atoms: _12  and  _13
REMARK    6  A    between atoms: _15  and  _17
REMARK    7  A    between atoms: _17  and  _18
REMARK    8  A    between atoms: _17  and  _20
REMARK    9  A    between atoms: _20  and  _21
REMARK   10  A    between atoms: _26  and  _28
REMARK   11  A    between atoms: _28  and  _29
REMARK   12  A    between atoms: _28  and  _31
REMARK   13  A    between atoms: _34  and  _36
REMARK   14  A    between atoms: _36  and  _37
REMARK   15  A    between atoms: _36  and  _39
REMARK   16  A    between atoms: _39  and  _40
REMARK   17  A    between atoms: _43  and  _45
REMARK   18  A    between atoms: _45  and  _46
REMARK   19  A    between atoms: _45  and  _48
REMARK   20  A    between atoms: _48  and  _49
REMARK   21  A    between atoms: _49  and  _50
REMARK   22  A    between atoms: _55  and  _57
REMARK   23  A    between atoms: _57  and  _58
REMARK   24  A    between atoms: _57  and  _60
REMARK   25  A    between atoms: _60  and  _61
REMARK   26  A    between atoms: _64  and  _66
REMARK   27  A    between atoms: _66  and  _67
REMARK   28  A    between atoms: _66  and  _69
REMARK   29  A    between atoms: _69  and  _70
REMARK   30  A    between atoms: _70  and  _71
REMARK   31  A    between atoms: _73  and  _75
REMARK   32  A    between atoms: _75  and  _76
REMARK   33  A    between atoms: _75  and  _78
REMARK   34  A    between atoms: _78  and  _79
REMARK   35  A    between atoms: _84  and  _86
REMARK   36  A    between atoms: _86  and  _87
REMARK   37  A    between atoms: _86  and  _89
REMARK   38  A    between atoms: _89  and  _90
REMARK   39  A    between atoms: _95  and  _97
REMARK   40  A    between atoms: _97  and  _98
REMARK   41  A    between atoms: _97  and  _100
REMARK   42  A    between atoms: _100  and  _101
REMARK   43  A    between atoms: _101  and  _102
REMARK   44  A    between atoms: _102  and  _103
REMARK   45  A    between atoms: _112  and  _114
REMARK   46  A    between atoms: _114  and  _115
REMARK   47  A    between atoms: _114  and  _117
REMARK   48  A    between atoms: _117  and  _118
REMARK   49  A    between atoms: _123  and  _125
REMARK   50  A    between atoms: _125  and  _126
REMARK   51  A    between atoms: _125  and  _128
REMARK   52  A    between atoms: _128  and  _129
REMARK   53  A    between atoms: _129  and  _130
REMARK   54  A    between atoms: _133  and  _135
REMARK   55  A    between atoms: _135  and  _136
REMARK   56  A    between atoms: _135  and  _138
REMARK   57  A    between atoms: _138  and  _139
REMARK   58  A    between atoms: _140  and  MG_451
REMARK   59  A    between atoms: _144  and  _146
REMARK   60  A    between atoms: _146  and  _147
REMARK   61  A    between atoms: _146  and  _149
REMARK   62  A    between atoms: _149  and  _150
REMARK   63  A    between atoms: _150  and  _151
REMARK   64  A    between atoms: _153  and  _155
REMARK   65  A    between atoms: _155  and  _156
REMARK   66  A    between atoms: _155  and  _158
REMARK   67  A    between atoms: _158  and  _159
REMARK   68  A    between atoms: _164  and  _166
REMARK   69  A    between atoms: _166  and  _167
REMARK   70  A    between atoms: _166  and  _169
REMARK   71  A    between atoms: _169  and  _170
REMARK   72  A    between atoms: _170  and  _171
REMARK   73  A    between atoms: _174  and  _176
REMARK   74  A    between atoms: _176  and  _177
REMARK   75  A    between atoms: _176  and  _179
REMARK   76  A    between atoms: _179  and  _180
REMARK   77  A    between atoms: _180  and  _181
REMARK   78  A    between atoms: _184  and  _186
REMARK   79  A    between atoms: _186  and  _187
REMARK   80  A    between atoms: _186  and  _189
REMARK   81  A    between atoms: _189  and  _190
REMARK   82  A    between atoms: _190  and  _191
REMARK   83  A    between atoms: _193  and  _195
REMARK   84  A    between atoms: _195  and  _196
REMARK   85  A    between atoms: _195  and  _198
REMARK   86  A    between atoms: _198  and  _199
REMARK   87  A    between atoms: _204  and  _205
REMARK   88  A    between atoms: _207  and  _209
REMARK   89  A    between atoms: _209  and  _210
REMARK   90  A    between atoms: _209  and  _212
REMARK   91  A    between atoms: _212  and  _213
REMARK   92  A    between atoms: _213  and  _214
REMARK   93  A    between atoms: _214  and  _215
REMARK   94  A    between atoms: _215  and  _216
REMARK   95  A    between atoms: _220  and  _222
REMARK   96  A    between atoms: _222  and  _223
REMARK   97  A    between atoms: _222  and  _225
REMARK   98  A    between atoms: _227  and  _229
REMARK   99  A    between atoms: _229  and  _230
REMARK  100  A    between atoms: _229  and  _232
REMARK  101  A    between atoms: _232  and  _233
REMARK  102  A    between atoms: _233  and  _234
REMARK  103  A    between atoms: _237  and  _239
REMARK  104  A    between atoms: _239  and  _240
REMARK  105  A    between atoms: _239  and  _242
REMARK  106  A    between atoms: _242  and  _243
REMARK  107  A    between atoms: _248  and  _250
REMARK  108  A    between atoms: _250  and  _251
REMARK  109  A    between atoms: _254  and  _256
REMARK  110  A    between atoms: _256  and  _257
REMARK  111  A    between atoms: _256  and  _259
REMARK  112  A    between atoms: _259  and  _260
REMARK  113  A    between atoms: _260  and  _261
REMARK  114  A    between atoms: _263  and  _265
REMARK  115  A    between atoms: _265  and  _266
REMARK  116  A    between atoms: _265  and  _268
REMARK  117  A    between atoms: _268  and  _269
REMARK  118  A    between atoms: _279  and  _281
REMARK  119  A    between atoms: _281  and  _282
REMARK  120  A    between atoms: _281  and  _284
REMARK  121  A    between atoms: _284  and  _285
REMARK  122  A    between atoms: _288  and  _290
REMARK  123  A    between atoms: _290  and  _291
REMARK  124  A    between atoms: _290  and  _293
REMARK  125  A    between atoms: _293  and  _294
REMARK  126  A    between atoms: _294  and  _295
REMARK  127  A    between atoms: _300  and  _302
REMARK  128  A    between atoms: _302  and  _303
REMARK  129  A    between atoms: _302  and  _305
REMARK  130  A    between atoms: _305  and  _306
REMARK  131  A    between atoms: _309  and  _311
REMARK  132  A    between atoms: _311  and  _312
REMARK  133  A    between atoms: _311  and  _314
REMARK  134  A    between atoms: _314  and  _315
REMARK  135  A    between atoms: _315  and  _316
REMARK  136  A    between atoms: _321  and  _323
REMARK  137  A    between atoms: _323  and  _324
REMARK  138  A    between atoms: _323  and  _326
REMARK  139  A    between atoms: _326  and  _327
REMARK  140  A    between atoms: _333  and  _335
REMARK  141  A    between atoms: _335  and  _336
REMARK  142  A    between atoms: _335  and  _338
REMARK  143  A    between atoms: _340  and  _342
REMARK  144  A    between atoms: _342  and  _343
REMARK  145  A    between atoms: _342  and  _345
REMARK  146  A    between atoms: _345  and  _346
REMARK  147  A    between atoms: _346  and  _347
REMARK  148  A    between atoms: _349  and  _351
REMARK  149  A    between atoms: _351  and  _352
REMARK  150  A    between atoms: _351  and  _354
REMARK  151  A    between atoms: _354  and  _355
REMARK  152  A    between atoms: _360  and  _362
REMARK  153  A    between atoms: _362  and  _363
REMARK  154  A    between atoms: _365  and  _367
REMARK  155  A    between atoms: _367  and  _368
REMARK  156  A    between atoms: _367  and  _370
REMARK  157  A    between atoms: _373  and  _375
REMARK  158  A    between atoms: _375  and  _376
REMARK  159  A    between atoms: _375  and  _378
REMARK  160  A    between atoms: _378  and  _379
REMARK  161  A    between atoms: _379  and  _380
REMARK  162  A    between atoms: _383  and  _385
REMARK  163  A    between atoms: _385  and  _386
REMARK  164  A    between atoms: _385  and  _388
REMARK  165  A    between atoms: _388  and  _389
REMARK  166  A    between atoms: _392  and  _394
REMARK  167  A    between atoms: _394  and  _395
REMARK  168  A    between atoms: _394  and  _397
REMARK  169  A    between atoms: _397  and  _398
REMARK  170  A    between atoms: _400  and  _402
REMARK  171  A    between atoms: _402  and  _403
REMARK  172  A    between atoms: _402  and  _405
REMARK  173  A    between atoms: _405  and  _406
REMARK  174  A    between atoms: _416  and  _418
REMARK  175  A    between atoms: _418  and  _419
REMARK  176  A    between atoms: _418  and  _421
REMARK  177  A    between atoms: _421  and  _422
REMARK  178  A    between atoms: _424  and  _426
REMARK  179  A    between atoms: _426  and  _427
REMARK  180  A    between atoms: _426  and  _429
REMARK  181  A    between atoms: _429  and  _430
REMARK  182  A    between atoms: _430  and  _431
REMARK  183  A    between atoms: _434  and  _436
REMARK  184  A    between atoms: _436  and  _437
REMARK  185  A    between atoms: _436  and  _439
REMARK  186  A    between atoms: _439  and  _440
REMARK  187  A    between atoms: _440  and  _441
REMARK  188  A    between atoms: _441  and  _442
REMARK                            x       y       z     vdW  Elec       q    Type
REMARK                         _______ _______ _______ _____ _____    ______ ____
ROOT
ATOM      1  O   HOH     1     -15.199 -23.342 -23.862  0.00  0.00    +0.000 OA
ENDROOT
TORSDOF 0
REMARK  Name = ../refined-set-2016/3t08/3t08_pocket.pdb
REMARK  188 active torsions:
REMARK  status: ('A' for Active; 'I' for Inactive)
REMARK    1  A    between atoms: _1  and  _3
REMARK    2  A    between atoms: _3  and  _4
REMARK    3  A    between atoms: _3  and  _6
REMARK    4  A    between atoms: _6  and  _7
REMARK    5  A    between atoms: _12  and  _13
REMARK    6  A    between atoms: _15  and  _17
REMARK    7  A    between atoms: _17  and  _18
REMARK    8  A    between atoms: _17  and  _20
REMARK    9  A    between atoms: _20  and  _21
REMARK   10  A    between atoms: _26  and  _28
REMARK   11  A    between atoms: _28  and  _29
REMARK   12  A    between atoms: _28  and  _31
REMARK   13  A    between atoms: _34  and  _36
REMARK   14  A    between atoms: _36  and  _37
REMARK   15  A    between atoms: _36  and  _39
REMARK   16  A    between atoms: _39  and  _40
REMARK   17  A    between atoms: _43  and  _45
REMARK   18  A    between atoms: _45  and  _46
REMARK   19  A    between atoms: _45  and  _48
REMARK   20  A    between atoms: _48  and  _49
REMARK   21  A    between atoms: _49  and  _50
REMARK   22  A    between atoms: _55  and  _57
REMARK   23  A    between atoms: _57  and  _58
REMARK   24  A    between atoms: _57  and  _60
REMARK   25  A    between atoms: _60  and  _61
REMARK   26  A    between atoms: _64  and  _66
REMARK   27  A    between atoms: _66  and  _67
REMARK   28  A    between atoms: _66  and  _69
REMARK   29  A    between atoms: _69  and  _70
REMARK   30  A    between atoms: _70  and  _71
REMARK   31  A    between atoms: _73  and  _75
REMARK   32  A    between atoms: _75  and  _76
REMARK   33  A    between atoms: _75  and  _78
REMARK   34  A    between atoms: _78  and  _79
REMARK   35  A    between atoms: _84  and  _86
REMARK   36  A    between atoms: _86  and  _87
REMARK   37  A    between atoms: _86  and  _89
REMARK   38  A    between atoms: _89  and  _90
REMARK   39  A    between atoms: _95  and  _97
REMARK   40  A    between atoms: _97  and  _98
REMARK   41  A    between atoms: _97  and  _100
REMARK   42  A    between atoms: _100  and  _101
REMARK   43  A    between atoms: _101  and  _102
REMARK   44  A    between atoms: _102  and  _103
REMARK   45  A    between atoms: _112  and  _114
REMARK   46  A    between atoms: _114  and  _115
REMARK   47  A    between atoms: _114  and  _117
REMARK   48  A    between atoms: _117  and  _118
REMARK   49  A    between atoms: _123  and  _125
REMARK   50  A    between atoms: _125  and  _126
REMARK   51  A    between atoms: _125  and  _128
REMARK   52  A    between atoms: _128  and  _129
REMARK   53  A    between atoms: _129  and  _130
REMARK   54  A    between atoms: _133  and  _135
REMARK   55  A    between atoms: _135  and  _136
REMARK   56  A    between atoms: _135  and  _138
REMARK   57  A    between atoms: _138  and  _139
REMARK   58  A    between atoms: _140  and  MG_451
REMARK   59  A    between atoms: _144  and  _146
REMARK   60  A    between atoms: _146  and  _147
REMARK   61  A    between atoms: _146  and  _149
REMARK   62  A    between atoms: _149  and  _150
REMARK   63  A    between atoms: _150  and  _151
REMARK   64  A    between atoms: _153  and  _155
REMARK   65  A    between atoms: _155  and  _156
REMARK   66  A    between atoms: _155  and  _158
REMARK   67  A    between atoms: _158  and  _159
REMARK   68  A    between atoms: _164  and  _166
REMARK   69  A    between atoms: _166  and  _167
REMARK   70  A    between atoms: _166  and  _169
REMARK   71  A    between atoms: _169  and  _170
REMARK   72  A    between atoms: _170  and  _171
REMARK   73  A    between atoms: _174  and  _176
REMARK   74  A    between atoms: _176  and  _177
REMARK   75  A    between atoms: _176  and  _179
REMARK   76  A    between atoms: _179  and  _180
REMARK   77  A    between atoms: _180  and  _181
REMARK   78  A    between atoms: _184  and  _186
REMARK   79  A    between atoms: _186  and  _187
REMARK   80  A    between atoms: _186  and  _189
REMARK   81  A    between atoms: _189  and  _190
REMARK   82  A    between atoms: _190  and  _191
REMARK   83  A    between atoms: _193  and  _195
REMARK   84  A    between atoms: _195  and  _196
REMARK   85  A    between atoms: _195  and  _198
REMARK   86  A    between atoms: _198  and  _199
REMARK   87  A    between atoms: _204  and  _205
REMARK   88  A    between atoms: _207  and  _209
REMARK   89  A    between atoms: _209  and  _210
REMARK   90  A    between atoms: _209  and  _212
REMARK   91  A    between atoms: _212  and  _213
REMARK   92  A    between atoms: _213  and  _214
REMARK   93  A    between atoms: _214  and  _215
REMARK   94  A    between atoms: _215  and  _216
REMARK   95  A    between atoms: _220  and  _222
REMARK   96  A    between atoms: _222  and  _223
REMARK   97  A    between atoms: _222  and  _225
REMARK   98  A    between atoms: _227  and  _229
REMARK   99  A    between atoms: _229  and  _230
REMARK  100  A    between atoms: _229  and  _232
REMARK  101  A    between atoms: _232  and  _233
REMARK  102  A    between atoms: _233  and  _234
REMARK  103  A    between atoms: _237  and  _239
REMARK  104  A    between atoms: _239  and  _240
REMARK  105  A    between atoms: _239  and  _242
REMARK  106  A    between atoms: _242  and  _243
REMARK  107  A    between atoms: _248  and  _250
REMARK  108  A    between atoms: _250  and  _251
REMARK  109  A    between atoms: _254  and  _256
REMARK  110  A    between atoms: _256  and  _257
REMARK  111  A    between atoms: _256  and  _259
REMARK  112  A    between atoms: _259  and  _260
REMARK  113  A    between atoms: _260  and  _261
REMARK  114  A    between atoms: _263  and  _265
REMARK  115  A    between atoms: _265  and  _266
REMARK  116  A    between atoms: _265  and  _268
REMARK  117  A    between atoms: _268  and  _269
REMARK  118  A    between atoms: _279  and  _281
REMARK  119  A    between atoms: _281  and  _282
REMARK  120  A    between atoms: _281  and  _284
REMARK  121  A    between atoms: _284  and  _285
REMARK  122  A    between atoms: _288  and  _290
REMARK  123  A    between atoms: _290  and  _291
REMARK  124  A    between atoms: _290  and  _293
REMARK  125  A    between atoms: _293  and  _294
REMARK  126  A    between atoms: _294  and  _295
REMARK  127  A    between atoms: _300  and  _302
REMARK  128  A    between atoms: _302  and  _303
REMARK  129  A    between atoms: _302  and  _305
REMARK  130  A    between atoms: _305  and  _306
REMARK  131  A    between atoms: _309  and  _311
REMARK  132  A    between atoms: _311  and  _312
REMARK  133  A    between atoms: _311  and  _314
REMARK  134  A    between atoms: _314  and  _315
REMARK  135  A    between atoms: _315  and  _316
REMARK  136  A    between atoms: _321  and  _323
REMARK  137  A    between atoms: _323  and  _324
REMARK  138  A    between atoms: _323  and  _326
REMARK  139  A    between atoms: _326  and  _327
REMARK  140  A    between atoms: _333  and  _335
REMARK  141  A    between atoms: _335  and  _336
REMARK  142  A    between atoms: _335  and  _338
REMARK  143  A    between atoms: _340  and  _342
REMARK  144  A    between atoms: _342  and  _343
REMARK  145  A    between atoms: _342  and  _345
REMARK  146  A    between atoms: _345  and  _346
REMARK  147  A    between atoms: _346  and  _347
REMARK  148  A    between atoms: _349  and  _351
REMARK  149  A    between atoms: _351  and  _352
REMARK  150  A    between atoms: _351  and  _354
REMARK  151  A    between atoms: _354  and  _355
REMARK  152  A    between atoms: _360  and  _362
REMARK  153  A    between atoms: _362  and  _363
REMARK  154  A    between atoms: _365  and  _367
REMARK  155  A    between atoms: _367  and  _368
REMARK  156  A    between atoms: _367  and  _370
REMARK  157  A    between atoms: _373  and  _375
REMARK  158  A    between atoms: _375  and  _376
REMARK  159  A    between atoms: _375  and  _378
REMARK  160  A    between atoms: _378  and  _379
REMARK  161  A    between atoms: _379  and  _380
REMARK  162  A    between atoms: _383  and  _385
REMARK  163  A    between atoms: _385  and  _386
REMARK  164  A    between atoms: _385  and  _388
REMARK  165  A    between atoms: _388  and  _389
REMARK  166  A    between atoms: _392  and  _394
REMARK  167  A    between atoms: _394  and  _395
REMARK  168  A    between atoms: _394  and  _397
REMARK  169  A    between atoms: _397  and  _398
REMARK  170  A    between atoms: _400  and  _402
REMARK  171  A    between atoms: _402  and  _403
REMARK  172  A    between atoms: _402  and  _405
REMARK  173  A    between atoms: _405  and  _406
REMARK  174  A    between atoms: _416  and  _418
REMARK  175  A    between atoms: _418  and  _419
REMARK  176  A    between atoms: _418  and  _421
REMARK  177  A    between atoms: _421  and  _422
REMARK  178  A    between atoms: _424  and  _426
REMARK  179  A    between atoms: _426  and  _427
REMARK  180  A    between atoms: _426  and  _429
REMARK  181  A    between atoms: _429  and  _430
REMARK  182  A    between atoms: _430  and  _431
REMARK  183  A    between atoms: _434  and  _436
REMARK  184  A    between atoms: _436  and  _437
REMARK  185  A    between atoms: _436  and  _439
REMARK  186  A    between atoms: _439  and  _440
REMARK  187  A    between atoms: _440  and  _441
REMARK  188  A    between atoms: _441  and  _442
REMARK                            x       y       z     vdW  Elec       q    Type
REMARK                         _______ _______ _______ _____ _____    ______ ____
ROOT
ATOM      1  O   HOH     1     -18.313 -35.568 -25.549  0.00  0.00    +0.000 OA
ENDROOT
TORSDOF 0
REMARK  Name = ../refined-set-2016/3t08/3t08_pocket.pdb
REMARK  188 active torsions:
REMARK  status: ('A' for Active; 'I' for Inactive)
REMARK    1  A    between atoms: _1  and  _3
REMARK    2  A    between atoms: _3  and  _4
REMARK    3  A    between atoms: _3  and  _6
REMARK    4  A    between atoms: _6  and  _7
REMARK    5  A    between atoms: _12  and  _13
REMARK    6  A    between atoms: _15  and  _17
REMARK    7  A    between atoms: _17  and  _18
REMARK    8  A    between atoms: _17  and  _20
REMARK    9  A    between atoms: _20  and  _21
REMARK   10  A    between atoms: _26  and  _28
REMARK   11  A    between atoms: _28  and  _29
REMARK   12  A    between atoms: _28  and  _31
REMARK   13  A    between atoms: _34  and  _36
REMARK   14  A    between atoms: _36  and  _37
REMARK   15  A    between atoms: _36  and  _39
REMARK   16  A    between atoms: _39  and  _40
REMARK   17  A    between atoms: _43  and  _45
REMARK   18  A    between atoms: _45  and  _46
REMARK   19  A    between atoms: _45  and  _48
REMARK   20  A    between atoms: _48  and  _49
REMARK   21  A    between atoms: _49  and  _50
REMARK   22  A    between atoms: _55  and  _57
REMARK   23  A    between atoms: _57  and  _58
REMARK   24  A    between atoms: _57  and  _60
REMARK   25  A    between atoms: _60  and  _61
REMARK   26  A    between atoms: _64  and  _66
REMARK   27  A    between atoms: _66  and  _67
REMARK   28  A    between atoms: _66  and  _69
REMARK   29  A    between atoms: _69  and  _70
REMARK   30  A    between atoms: _70  and  _71
REMARK   31  A    between atoms: _73  and  _75
REMARK   32  A    between atoms: _75  and  _76
REMARK   33  A    between atoms: _75  and  _78
REMARK   34  A    between atoms: _78  and  _79
REMARK   35  A    between atoms: _84  and  _86
REMARK   36  A    between atoms: _86  and  _87
REMARK   37  A    between atoms: _86  and  _89
REMARK   38  A    between atoms: _89  and  _90
REMARK   39  A    between atoms: _95  and  _97
REMARK   40  A    between atoms: _97  and  _98
REMARK   41  A    between atoms: _97  and  _100
REMARK   42  A    between atoms: _100  and  _101
REMARK   43  A    between atoms: _101  and  _102
REMARK   44  A    between atoms: _102  and  _103
REMARK   45  A    between atoms: _112  and  _114
REMARK   46  A    between atoms: _114  and  _115
REMARK   47  A    between atoms: _114  and  _117
REMARK   48  A    between atoms: _117  and  _118
REMARK   49  A    between atoms: _123  and  _125
REMARK   50  A    between atoms: _125  and  _126
REMARK   51  A    between atoms: _125  and  _128
REMARK   52  A    between atoms: _128  and  _129
REMARK   53  A    between atoms: _129  and  _130
REMARK   54  A    between atoms: _133  and  _135
REMARK   55  A    between atoms: _135  and  _136
REMARK   56  A    between atoms: _135  and  _138
REMARK   57  A    between atoms: _138  and  _139
REMARK   58  A    between atoms: _140  and  MG_451
REMARK   59  A    between atoms: _144  and  _146
REMARK   60  A    between atoms: _146  and  _147
REMARK   61  A    between atoms: _146  and  _149
REMARK   62  A    between atoms: _149  and  _150
REMARK   63  A    between atoms: _150  and  _151
REMARK   64  A    between atoms: _153  and  _155
REMARK   65  A    between atoms: _155  and  _156
REMARK   66  A    between atoms: _155  and  _158
REMARK   67  A    between atoms: _158  and  _159
REMARK   68  A    between atoms: _164  and  _166
REMARK   69  A    between atoms: _166  and  _167
REMARK   70  A    between atoms: _166  and  _169
REMARK   71  A    between atoms: _169  and  _170
REMARK   72  A    between atoms: _170  and  _171
REMARK   73  A    between atoms: _174  and  _176
REMARK   74  A    between atoms: _176  and  _177
REMARK   75  A    between atoms: _176  and  _179
REMARK   76  A    between atoms: _179  and  _180
REMARK   77  A    between atoms: _180  and  _181
REMARK   78  A    between atoms: _184  and  _186
REMARK   79  A    between atoms: _186  and  _187
REMARK   80  A    between atoms: _186  and  _189
REMARK   81  A    between atoms: _189  and  _190
REMARK   82  A    between atoms: _190  and  _191
REMARK   83  A    between atoms: _193  and  _195
REMARK   84  A    between atoms: _195  and  _196
REMARK   85  A    between atoms: _195  and  _198
REMARK   86  A    between atoms: _198  and  _199
REMARK   87  A    between atoms: _204  and  _205
REMARK   88  A    between atoms: _207  and  _209
REMARK   89  A    between atoms: _209  and  _210
REMARK   90  A    between atoms: _209  and  _212
REMARK   91  A    between atoms: _212  and  _213
REMARK   92  A    between atoms: _213  and  _214
REMARK   93  A    between atoms: _214  and  _215
REMARK   94  A    between atoms: _215  and  _216
REMARK   95  A    between atoms: _220  and  _222
REMARK   96  A    between atoms: _222  and  _223
REMARK   97  A    between atoms: _222  and  _225
REMARK   98  A    between atoms: _227  and  _229
REMARK   99  A    between atoms: _229  and  _230
REMARK  100  A    between atoms: _229  and  _232
REMARK  101  A    between atoms: _232  and  _233
REMARK  102  A    between atoms: _233  and  _234
REMARK  103  A    between atoms: _237  and  _239
REMARK  104  A    between atoms: _239  and  _240
REMARK  105  A    between atoms: _239  and  _242
REMARK  106  A    between atoms: _242  and  _243
REMARK  107  A    between atoms: _248  and  _250
REMARK  108  A    between atoms: _250  and  _251
REMARK  109  A    between atoms: _254  and  _256
REMARK  110  A    between atoms: _256  and  _257
REMARK  111  A    between atoms: _256  and  _259
REMARK  112  A    between atoms: _259  and  _260
REMARK  113  A    between atoms: _260  and  _261
REMARK  114  A    between atoms: _263  and  _265
REMARK  115  A    between atoms: _265  and  _266
REMARK  116  A    between atoms: _265  and  _268
REMARK  117  A    between atoms: _268  and  _269
REMARK  118  A    between atoms: _279  and  _281
REMARK  119  A    between atoms: _281  and  _282
REMARK  120  A    between atoms: _281  and  _284
REMARK  121  A    between atoms: _284  and  _285
REMARK  122  A    between atoms: _288  and  _290
REMARK  123  A    between atoms: _290  and  _291
REMARK  124  A    between atoms: _290  and  _293
REMARK  125  A    between atoms: _293  and  _294
REMARK  126  A    between atoms: _294  and  _295
REMARK  127  A    between atoms: _300  and  _302
REMARK  128  A    between atoms: _302  and  _303
REMARK  129  A    between atoms: _302  and  _305
REMARK  130  A    between atoms: _305  and  _306
REMARK  131  A    between atoms: _309  and  _311
REMARK  132  A    between atoms: _311  and  _312
REMARK  133  A    between atoms: _311  and  _314
REMARK  134  A    between atoms: _314  and  _315
REMARK  135  A    between atoms: _315  and  _316
REMARK  136  A    between atoms: _321  and  _323
REMARK  137  A    between atoms: _323  and  _324
REMARK  138  A    between atoms: _323  and  _326
REMARK  139  A    between atoms: _326  and  _327
REMARK  140  A    between atoms: _333  and  _335
REMARK  141  A    between atoms: _335  and  _336
REMARK  142  A    between atoms: _335  and  _338
REMARK  143  A    between atoms: _340  and  _342
REMARK  144  A    between atoms: _342  and  _343
REMARK  145  A    between atoms: _342  and  _345
REMARK  146  A    between atoms: _345  and  _346
REMARK  147  A    between atoms: _346  and  _347
REMARK  148  A    between atoms: _349  and  _351
REMARK  149  A    between atoms: _351  and  _352
REMARK  150  A    between atoms: _351  and  _354
REMARK  151  A    between atoms: _354  and  _355
REMARK  152  A    between atoms: _360  and  _362
REMARK  153  A    between atoms: _362  and  _363
REMARK  154  A    between atoms: _365  and  _367
REMARK  155  A    between atoms: _367  and  _368
REMARK  156  A    between atoms: _367  and  _370
REMARK  157  A    between atoms: _373  and  _375
REMARK  158  A    between atoms: _375  and  _376
REMARK  159  A    between atoms: _375  and  _378
REMARK  160  A    between atoms: _378  and  _379
REMARK  161  A    between atoms: _379  and  _380
REMARK  162  A    between atoms: _383  and  _385
REMARK  163  A    between atoms: _385  and  _386
REMARK  164  A    between atoms: _385  and  _388
REMARK  165  A    between atoms: _388  and  _389
REMARK  166  A    between atoms: _392  and  _394
REMARK  167  A    between atoms: _394  and  _395
REMARK  168  A    between atoms: _394  and  _397
REMARK  169  A    between atoms: _397  and  _398
REMARK  170  A    between atoms: _400  and  _402
REMARK  171  A    between atoms: _402  and  _403
REMARK  172  A    between atoms: _402  and  _405
REMARK  173  A    between atoms: _405  and  _406
REMARK  174  A    between atoms: _416  and  _418
REMARK  175  A    between atoms: _418  and  _419
REMARK  176  A    between atoms: _418  and  _421
REMARK  177  A    between atoms: _421  and  _422
REMARK  178  A    between atoms: _424  and  _426
REMARK  179  A    between atoms: _426  and  _427
REMARK  180  A    between atoms: _426  and  _429
REMARK  181  A    between atoms: _429  and  _430
REMARK  182  A    between atoms: _430  and  _431
REMARK  183  A    between atoms: _434  and  _436
REMARK  184  A    between atoms: _436  and  _437
REMARK  185  A    between atoms: _436  and  _439
REMARK  186  A    between atoms: _439  and  _440
REMARK  187  A    between atoms: _440  and  _441
REMARK  188  A    between atoms: _441  and  _442
REMARK                            x       y       z     vdW  Elec       q    Type
REMARK                         _______ _______ _______ _____ _____    ______ ____
ROOT
ATOM      1  O   HOH     1     -13.967 -25.500 -20.925  0.00  0.00    +0.000 OA
ENDROOT
TORSDOF 0
REMARK  Name = ../refined-set-2016/3t08/3t08_pocket.pdb
REMARK  188 active torsions:
REMARK  status: ('A' for Active; 'I' for Inactive)
REMARK    1  A    between atoms: _1  and  _3
REMARK    2  A    between atoms: _3  and  _4
REMARK    3  A    between atoms: _3  and  _6
REMARK    4  A    between atoms: _6  and  _7
REMARK    5  A    between atoms: _12  and  _13
REMARK    6  A    between atoms: _15  and  _17
REMARK    7  A    between atoms: _17  and  _18
REMARK    8  A    between atoms: _17  and  _20
REMARK    9  A    between atoms: _20  and  _21
REMARK   10  A    between atoms: _26  and  _28
REMARK   11  A    between atoms: _28  and  _29
REMARK   12  A    between atoms: _28  and  _31
REMARK   13  A    between atoms: _34  and  _36
REMARK   14  A    between atoms: _36  and  _37
REMARK   15  A    between atoms: _36  and  _39
REMARK   16  A    between atoms: _39  and  _40
REMARK   17  A    between atoms: _43  and  _45
REMARK   18  A    between atoms: _45  and  _46
REMARK   19  A    between atoms: _45  and  _48
REMARK   20  A    between atoms: _48  and  _49
REMARK   21  A    between atoms: _49  and  _50
REMARK   22  A    between atoms: _55  and  _57
REMARK   23  A    between atoms: _57  and  _58
REMARK   24  A    between atoms: _57  and  _60
REMARK   25  A    between atoms: _60  and  _61
REMARK   26  A    between atoms: _64  and  _66
REMARK   27  A    between atoms: _66  and  _67
REMARK   28  A    between atoms: _66  and  _69
REMARK   29  A    between atoms: _69  and  _70
REMARK   30  A    between atoms: _70  and  _71
REMARK   31  A    between atoms: _73  and  _75
REMARK   32  A    between atoms: _75  and  _76
REMARK   33  A    between atoms: _75  and  _78
REMARK   34  A    between atoms: _78  and  _79
REMARK   35  A    between atoms: _84  and  _86
REMARK   36  A    between atoms: _86  and  _87
REMARK   37  A    between atoms: _86  and  _89
REMARK   38  A    between atoms: _89  and  _90
REMARK   39  A    between atoms: _95  and  _97
REMARK   40  A    between atoms: _97  and  _98
REMARK   41  A    between atoms: _97  and  _100
REMARK   42  A    between atoms: _100  and  _101
REMARK   43  A    between atoms: _101  and  _102
REMARK   44  A    between atoms: _102  and  _103
REMARK   45  A    between atoms: _112  and  _114
REMARK   46  A    between atoms: _114  and  _115
REMARK   47  A    between atoms: _114  and  _117
REMARK   48  A    between atoms: _117  and  _118
REMARK   49  A    between atoms: _123  and  _125
REMARK   50  A    between atoms: _125  and  _126
REMARK   51  A    between atoms: _125  and  _128
REMARK   52  A    between atoms: _128  and  _129
REMARK   53  A    between atoms: _129  and  _130
REMARK   54  A    between atoms: _133  and  _135
REMARK   55  A    between atoms: _135  and  _136
REMARK   56  A    between atoms: _135  and  _138
REMARK   57  A    between atoms: _138  and  _139
REMARK   58  A    between atoms: _140  and  MG_451
REMARK   59  A    between atoms: _144  and  _146
REMARK   60  A    between atoms: _146  and  _147
REMARK   61  A    between atoms: _146  and  _149
REMARK   62  A    between atoms: _149  and  _150
REMARK   63  A    between atoms: _150  and  _151
REMARK   64  A    between atoms: _153  and  _155
REMARK   65  A    between atoms: _155  and  _156
REMARK   66  A    between atoms: _155  and  _158
REMARK   67  A    between atoms: _158  and  _159
REMARK   68  A    between atoms: _164  and  _166
REMARK   69  A    between atoms: _166  and  _167
REMARK   70  A    between atoms: _166  and  _169
REMARK   71  A    between atoms: _169  and  _170
REMARK   72  A    between atoms: _170  and  _171
REMARK   73  A    between atoms: _174  and  _176
REMARK   74  A    between atoms: _176  and  _177
REMARK   75  A    between atoms: _176  and  _179
REMARK   76  A    between atoms: _179  and  _180
REMARK   77  A    between atoms: _180  and  _181
REMARK   78  A    between atoms: _184  and  _186
REMARK   79  A    between atoms: _186  and  _187
REMARK   80  A    between atoms: _186  and  _189
REMARK   81  A    between atoms: _189  and  _190
REMARK   82  A    between atoms: _190  and  _191
REMARK   83  A    between atoms: _193  and  _195
REMARK   84  A    between atoms: _195  and  _196
REMARK   85  A    between atoms: _195  and  _198
REMARK   86  A    between atoms: _198  and  _199
REMARK   87  A    between atoms: _204  and  _205
REMARK   88  A    between atoms: _207  and  _209
REMARK   89  A    between atoms: _209  and  _210
REMARK   90  A    between atoms: _209  and  _212
REMARK   91  A    between atoms: _212  and  _213
REMARK   92  A    between atoms: _213  and  _214
REMARK   93  A    between atoms: _214  and  _215
REMARK   94  A    between atoms: _215  and  _216
REMARK   95  A    between atoms: _220  and  _222
REMARK   96  A    between atoms: _222  and  _223
REMARK   97  A    between atoms: _222  and  _225
REMARK   98  A    between atoms: _227  and  _229
REMARK   99  A    between atoms: _229  and  _230
REMARK  100  A    between atoms: _229  and  _232
REMARK  101  A    between atoms: _232  and  _233
REMARK  102  A    between atoms: _233  and  _234
REMARK  103  A    between atoms: _237  and  _239
REMARK  104  A    between atoms: _239  and  _240
REMARK  105  A    between atoms: _239  and  _242
REMARK  106  A    between atoms: _242  and  _243
REMARK  107  A    between atoms: _248  and  _250
REMARK  108  A    between atoms: _250  and  _251
REMARK  109  A    between atoms: _254  and  _256
REMARK  110  A    between atoms: _256  and  _257
REMARK  111  A    between atoms: _256  and  _259
REMARK  112  A    between atoms: _259  and  _260
REMARK  113  A    between atoms: _260  and  _261
REMARK  114  A    between atoms: _263  and  _265
REMARK  115  A    between atoms: _265  and  _266
REMARK  116  A    between atoms: _265  and  _268
REMARK  117  A    between atoms: _268  and  _269
REMARK  118  A    between atoms: _279  and  _281
REMARK  119  A    between atoms: _281  and  _282
REMARK  120  A    between atoms: _281  and  _284
REMARK  121  A    between atoms: _284  and  _285
REMARK  122  A    between atoms: _288  and  _290
REMARK  123  A    between atoms: _290  and  _291
REMARK  124  A    between atoms: _290  and  _293
REMARK  125  A    between atoms: _293  and  _294
REMARK  126  A    between atoms: _294  and  _295
REMARK  127  A    between atoms: _300  and  _302
REMARK  128  A    between atoms: _302  and  _303
REMARK  129  A    between atoms: _302  and  _305
REMARK  130  A    between atoms: _305  and  _306
REMARK  131  A    between atoms: _309  and  _311
REMARK  132  A    between atoms: _311  and  _312
REMARK  133  A    between atoms: _311  and  _314
REMARK  134  A    between atoms: _314  and  _315
REMARK  135  A    between atoms: _315  and  _316
REMARK  136  A    between atoms: _321  and  _323
REMARK  137  A    between atoms: _323  and  _324
REMARK  138  A    between atoms: _323  and  _326
REMARK  139  A    between atoms: _326  and  _327
REMARK  140  A    between atoms: _333  and  _335
REMARK  141  A    between atoms: _335  and  _336
REMARK  142  A    between atoms: _335  and  _338
REMARK  143  A    between atoms: _340  and  _342
REMARK  144  A    between atoms: _342  and  _343
REMARK  145  A    between atoms: _342  and  _345
REMARK  146  A    between atoms: _345  and  _346
REMARK  147  A    between atoms: _346  and  _347
REMARK  148  A    between atoms: _349  and  _351
REMARK  149  A    between atoms: _351  and  _352
REMARK  150  A    between atoms: _351  and  _354
REMARK  151  A    between atoms: _354  and  _355
REMARK  152  A    between atoms: _360  and  _362
REMARK  153  A    between atoms: _362  and  _363
REMARK  154  A    between atoms: _365  and  _367
REMARK  155  A    between atoms: _367  and  _368
REMARK  156  A    between atoms: _367  and  _370
REMARK  157  A    between atoms: _373  and  _375
REMARK  158  A    between atoms: _375  and  _376
REMARK  159  A    between atoms: _375  and  _378
REMARK  160  A    between atoms: _378  and  _379
REMARK  161  A    between atoms: _379  and  _380
REMARK  162  A    between atoms: _383  and  _385
REMARK  163  A    between atoms: _385  and  _386
REMARK  164  A    between atoms: _385  and  _388
REMARK  165  A    between atoms: _388  and  _389
REMARK  166  A    between atoms: _392  and  _394
REMARK  167  A    between atoms: _394  and  _395
REMARK  168  A    between atoms: _394  and  _397
REMARK  169  A    between atoms: _397  and  _398
REMARK  170  A    between atoms: _400  and  _402
REMARK  171  A    between atoms: _402  and  _403
REMARK  172  A    between atoms: _402  and  _405
REMARK  173  A    between atoms: _405  and  _406
REMARK  174  A    between atoms: _416  and  _418
REMARK  175  A    between atoms: _418  and  _419
REMARK  176  A    between atoms: _418  and  _421
REMARK  177  A    between atoms: _421  and  _422
REMARK  178  A    between atoms: _424  and  _426
REMARK  179  A    between atoms: _426  and  _427
REMARK  180  A    between atoms: _426  and  _429
REMARK  181  A    between atoms: _429  and  _430
REMARK  182  A    between atoms: _430  and  _431
REMARK  183  A    between atoms: _434  and  _436
REMARK  184  A    between atoms: _436  and  _437
REMARK  185  A    between atoms: _436  and  _439
REMARK  186  A    between atoms: _439  and  _440
REMARK  187  A    between atoms: _440  and  _441
REMARK  188  A    between atoms: _441  and  _442
REMARK                            x       y       z     vdW  Elec       q    Type
REMARK                         _______ _______ _______ _____ _____    ______ ____
ROOT
ATOM      1  O   HOH     1      -9.418 -27.422 -24.033  0.00  0.00    +0.000 OA
ENDROOT
TORSDOF 0
REMARK  Name = ../refined-set-2016/3t08/3t08_pocket.pdb
REMARK  188 active torsions:
REMARK  status: ('A' for Active; 'I' for Inactive)
REMARK    1  A    between atoms: _1  and  _3
REMARK    2  A    between atoms: _3  and  _4
REMARK    3  A    between atoms: _3  and  _6
REMARK    4  A    between atoms: _6  and  _7
REMARK    5  A    between atoms: _12  and  _13
REMARK    6  A    between atoms: _15  and  _17
REMARK    7  A    between atoms: _17  and  _18
REMARK    8  A    between atoms: _17  and  _20
REMARK    9  A    between atoms: _20  and  _21
REMARK   10  A    between atoms: _26  and  _28
REMARK   11  A    between atoms: _28  and  _29
REMARK   12  A    between atoms: _28  and  _31
REMARK   13  A    between atoms: _34  and  _36
REMARK   14  A    between atoms: _36  and  _37
REMARK   15  A    between atoms: _36  and  _39
REMARK   16  A    between atoms: _39  and  _40
REMARK   17  A    between atoms: _43  and  _45
REMARK   18  A    between atoms: _45  and  _46
REMARK   19  A    between atoms: _45  and  _48
REMARK   20  A    between atoms: _48  and  _49
REMARK   21  A    between atoms: _49  and  _50
REMARK   22  A    between atoms: _55  and  _57
REMARK   23  A    between atoms: _57  and  _58
REMARK   24  A    between atoms: _57  and  _60
REMARK   25  A    between atoms: _60  and  _61
REMARK   26  A    between atoms: _64  and  _66
REMARK   27  A    between atoms: _66  and  _67
REMARK   28  A    between atoms: _66  and  _69
REMARK   29  A    between atoms: _69  and  _70
REMARK   30  A    between atoms: _70  and  _71
REMARK   31  A    between atoms: _73  and  _75
REMARK   32  A    between atoms: _75  and  _76
REMARK   33  A    between atoms: _75  and  _78
REMARK   34  A    between atoms: _78  and  _79
REMARK   35  A    between atoms: _84  and  _86
REMARK   36  A    between atoms: _86  and  _87
REMARK   37  A    between atoms: _86  and  _89
REMARK   38  A    between atoms: _89  and  _90
REMARK   39  A    between atoms: _95  and  _97
REMARK   40  A    between atoms: _97  and  _98
REMARK   41  A    between atoms: _97  and  _100
REMARK   42  A    between atoms: _100  and  _101
REMARK   43  A    between atoms: _101  and  _102
REMARK   44  A    between atoms: _102  and  _103
REMARK   45  A    between atoms: _112  and  _114
REMARK   46  A    between atoms: _114  and  _115
REMARK   47  A    between atoms: _114  and  _117
REMARK   48  A    between atoms: _117  and  _118
REMARK   49  A    between atoms: _123  and  _125
REMARK   50  A    between atoms: _125  and  _126
REMARK   51  A    between atoms: _125  and  _128
REMARK   52  A    between atoms: _128  and  _129
REMARK   53  A    between atoms: _129  and  _130
REMARK   54  A    between atoms: _133  and  _135
REMARK   55  A    between atoms: _135  and  _136
REMARK   56  A    between atoms: _135  and  _138
REMARK   57  A    between atoms: _138  and  _139
REMARK   58  A    between atoms: _140  and  MG_451
REMARK   59  A    between atoms: _144  and  _146
REMARK   60  A    between atoms: _146  and  _147
REMARK   61  A    between atoms: _146  and  _149
REMARK   62  A    between atoms: _149  and  _150
REMARK   63  A    between atoms: _150  and  _151
REMARK   64  A    between atoms: _153  and  _155
REMARK   65  A    between atoms: _155  and  _156
REMARK   66  A    between atoms: _155  and  _158
REMARK   67  A    between atoms: _158  and  _159
REMARK   68  A    between atoms: _164  and  _166
REMARK   69  A    between atoms: _166  and  _167
REMARK   70  A    between atoms: _166  and  _169
REMARK   71  A    between atoms: _169  and  _170
REMARK   72  A    between atoms: _170  and  _171
REMARK   73  A    between atoms: _174  and  _176
REMARK   74  A    between atoms: _176  and  _177
REMARK   75  A    between atoms: _176  and  _179
REMARK   76  A    between atoms: _179  and  _180
REMARK   77  A    between atoms: _180  and  _181
REMARK   78  A    between atoms: _184  and  _186
REMARK   79  A    between atoms: _186  and  _187
REMARK   80  A    between atoms: _186  and  _189
REMARK   81  A    between atoms: _189  and  _190
REMARK   82  A    between atoms: _190  and  _191
REMARK   83  A    between atoms: _193  and  _195
REMARK   84  A    between atoms: _195  and  _196
REMARK   85  A    between atoms: _195  and  _198
REMARK   86  A    between atoms: _198  and  _199
REMARK   87  A    between atoms: _204  and  _205
REMARK   88  A    between atoms: _207  and  _209
REMARK   89  A    between atoms: _209  and  _210
REMARK   90  A    between atoms: _209  and  _212
REMARK   91  A    between atoms: _212  and  _213
REMARK   92  A    between atoms: _213  and  _214
REMARK   93  A    between atoms: _214  and  _215
REMARK   94  A    between atoms: _215  and  _216
REMARK   95  A    between atoms: _220  and  _222
REMARK   96  A    between atoms: _222  and  _223
REMARK   97  A    between atoms: _222  and  _225
REMARK   98  A    between atoms: _227  and  _229
REMARK   99  A    between atoms: _229  and  _230
REMARK  100  A    between atoms: _229  and  _232
REMARK  101  A    between atoms: _232  and  _233
REMARK  102  A    between atoms: _233  and  _234
REMARK  103  A    between atoms: _237  and  _239
REMARK  104  A    between atoms: _239  and  _240
REMARK  105  A    between atoms: _239  and  _242
REMARK  106  A    between atoms: _242  and  _243
REMARK  107  A    between atoms: _248  and  _250
REMARK  108  A    between atoms: _250  and  _251
REMARK  109  A    between atoms: _254  and  _256
REMARK  110  A    between atoms: _256  and  _257
REMARK  111  A    between atoms: _256  and  _259
REMARK  112  A    between atoms: _259  and  _260
REMARK  113  A    between atoms: _260  and  _261
REMARK  114  A    between atoms: _263  and  _265
REMARK  115  A    between atoms: _265  and  _266
REMARK  116  A    between atoms: _265  and  _268
REMARK  117  A    between atoms: _268  and  _269
REMARK  118  A    between atoms: _279  and  _281
REMARK  119  A    between atoms: _281  and  _282
REMARK  120  A    between atoms: _281  and  _284
REMARK  121  A    between atoms: _284  and  _285
REMARK  122  A    between atoms: _288  and  _290
REMARK  123  A    between atoms: _290  and  _291
REMARK  124  A    between atoms: _290  and  _293
REMARK  125  A    between atoms: _293  and  _294
REMARK  126  A    between atoms: _294  and  _295
REMARK  127  A    between atoms: _300  and  _302
REMARK  128  A    between atoms: _302  and  _303
REMARK  129  A    between atoms: _302  and  _305
REMARK  130  A    between atoms: _305  and  _306
REMARK  131  A    between atoms: _309  and  _311
REMARK  132  A    between atoms: _311  and  _312
REMARK  133  A    between atoms: _311  and  _314
REMARK  134  A    between atoms: _314  and  _315
REMARK  135  A    between atoms: _315  and  _316
REMARK  136  A    between atoms: _321  and  _323
REMARK  137  A    between atoms: _323  and  _324
REMARK  138  A    between atoms: _323  and  _326
REMARK  139  A    between atoms: _326  and  _327
REMARK  140  A    between atoms: _333  and  _335
REMARK  141  A    between atoms: _335  and  _336
REMARK  142  A    between atoms: _335  and  _338
REMARK  143  A    between atoms: _340  and  _342
REMARK  144  A    between atoms: _342  and  _343
REMARK  145  A    between atoms: _342  and  _345
REMARK  146  A    between atoms: _345  and  _346
REMARK  147  A    between atoms: _346  and  _347
REMARK  148  A    between atoms: _349  and  _351
REMARK  149  A    between atoms: _351  and  _352
REMARK  150  A    between atoms: _351  and  _354
REMARK  151  A    between atoms: _354  and  _355
REMARK  152  A    between atoms: _360  and  _362
REMARK  153  A    between atoms: _362  and  _363
REMARK  154  A    between atoms: _365  and  _367
REMARK  155  A    between atoms: _367  and  _368
REMARK  156  A    between atoms: _367  and  _370
REMARK  157  A    between atoms: _373  and  _375
REMARK  158  A    between atoms: _375  and  _376
REMARK  159  A    between atoms: _375  and  _378
REMARK  160  A    between atoms: _378  and  _379
REMARK  161  A    between atoms: _379  and  _380
REMARK  162  A    between atoms: _383  and  _385
REMARK  163  A    between atoms: _385  and  _386
REMARK  164  A    between atoms: _385  and  _388
REMARK  165  A    between atoms: _388  and  _389
REMARK  166  A    between atoms: _392  and  _394
REMARK  167  A    between atoms: _394  and  _395
REMARK  168  A    between atoms: _394  and  _397
REMARK  169  A    between atoms: _397  and  _398
REMARK  170  A    between atoms: _400  and  _402
REMARK  171  A    between atoms: _402  and  _403
REMARK  172  A    between atoms: _402  and  _405
REMARK  173  A    between atoms: _405  and  _406
REMARK  174  A    between atoms: _416  and  _418
REMARK  175  A    between atoms: _418  and  _419
REMARK  176  A    between atoms: _418  and  _421
REMARK  177  A    between atoms: _421  and  _422
REMARK  178  A    between atoms: _424  and  _426
REMARK  179  A    between atoms: _426  and  _427
REMARK  180  A    between atoms: _426  and  _429
REMARK  181  A    between atoms: _429  and  _430
REMARK  182  A    between atoms: _430  and  _431
REMARK  183  A    between atoms: _434  and  _436
REMARK  184  A    between atoms: _436  and  _437
REMARK  185  A    between atoms: _436  and  _439
REMARK  186  A    between atoms: _439  and  _440
REMARK  187  A    between atoms: _440  and  _441
REMARK  188  A    between atoms: _441  and  _442
REMARK                            x       y       z     vdW  Elec       q    Type
REMARK                         _______ _______ _______ _____ _____    ______ ____
ROOT
ATOM      1  O   HOH     1     -17.961 -22.025 -24.976  0.00  0.00    +0.000 OA
ENDROOT
TORSDOF 0
REMARK  Name = ../refined-set-2016/3t08/3t08_pocket.pdb
REMARK  188 active torsions:
REMARK  status: ('A' for Active; 'I' for Inactive)
REMARK    1  A    between atoms: _1  and  _3
REMARK    2  A    between atoms: _3  and  _4
REMARK    3  A    between atoms: _3  and  _6
REMARK    4  A    between atoms: _6  and  _7
REMARK    5  A    between atoms: _12  and  _13
REMARK    6  A    between atoms: _15  and  _17
REMARK    7  A    between atoms: _17  and  _18
REMARK    8  A    between atoms: _17  and  _20
REMARK    9  A    between atoms: _20  and  _21
REMARK   10  A    between atoms: _26  and  _28
REMARK   11  A    between atoms: _28  and  _29
REMARK   12  A    between atoms: _28  and  _31
REMARK   13  A    between atoms: _34  and  _36
REMARK   14  A    between atoms: _36  and  _37
REMARK   15  A    between atoms: _36  and  _39
REMARK   16  A    between atoms: _39  and  _40
REMARK   17  A    between atoms: _43  and  _45
REMARK   18  A    between atoms: _45  and  _46
REMARK   19  A    between atoms: _45  and  _48
REMARK   20  A    between atoms: _48  and  _49
REMARK   21  A    between atoms: _49  and  _50
REMARK   22  A    between atoms: _55  and  _57
REMARK   23  A    between atoms: _57  and  _58
REMARK   24  A    between atoms: _57  and  _60
REMARK   25  A    between atoms: _60  and  _61
REMARK   26  A    between atoms: _64  and  _66
REMARK   27  A    between atoms: _66  and  _67
REMARK   28  A    between atoms: _66  and  _69
REMARK   29  A    between atoms: _69  and  _70
REMARK   30  A    between atoms: _70  and  _71
REMARK   31  A    between atoms: _73  and  _75
REMARK   32  A    between atoms: _75  and  _76
REMARK   33  A    between atoms: _75  and  _78
REMARK   34  A    between atoms: _78  and  _79
REMARK   35  A    between atoms: _84  and  _86
REMARK   36  A    between atoms: _86  and  _87
REMARK   37  A    between atoms: _86  and  _89
REMARK   38  A    between atoms: _89  and  _90
REMARK   39  A    between atoms: _95  and  _97
REMARK   40  A    between atoms: _97  and  _98
REMARK   41  A    between atoms: _97  and  _100
REMARK   42  A    between atoms: _100  and  _101
REMARK   43  A    between atoms: _101  and  _102
REMARK   44  A    between atoms: _102  and  _103
REMARK   45  A    between atoms: _112  and  _114
REMARK   46  A    between atoms: _114  and  _115
REMARK   47  A    between atoms: _114  and  _117
REMARK   48  A    between atoms: _117  and  _118
REMARK   49  A    between atoms: _123  and  _125
REMARK   50  A    between atoms: _125  and  _126
REMARK   51  A    between atoms: _125  and  _128
REMARK   52  A    between atoms: _128  and  _129
REMARK   53  A    between atoms: _129  and  _130
REMARK   54  A    between atoms: _133  and  _135
REMARK   55  A    between atoms: _135  and  _136
REMARK   56  A    between atoms: _135  and  _138
REMARK   57  A    between atoms: _138  and  _139
REMARK   58  A    between atoms: _140  and  MG_451
REMARK   59  A    between atoms: _144  and  _146
REMARK   60  A    between atoms: _146  and  _147
REMARK   61  A    between atoms: _146  and  _149
REMARK   62  A    between atoms: _149  and  _150
REMARK   63  A    between atoms: _150  and  _151
REMARK   64  A    between atoms: _153  and  _155
REMARK   65  A    between atoms: _155  and  _156
REMARK   66  A    between atoms: _155  and  _158
REMARK   67  A    between atoms: _158  and  _159
REMARK   68  A    between atoms: _164  and  _166
REMARK   69  A    between atoms: _166  and  _167
REMARK   70  A    between atoms: _166  and  _169
REMARK   71  A    between atoms: _169  and  _170
REMARK   72  A    between atoms: _170  and  _171
REMARK   73  A    between atoms: _174  and  _176
REMARK   74  A    between atoms: _176  and  _177
REMARK   75  A    between atoms: _176  and  _179
REMARK   76  A    between atoms: _179  and  _180
REMARK   77  A    between atoms: _180  and  _181
REMARK   78  A    between atoms: _184  and  _186
REMARK   79  A    between atoms: _186  and  _187
REMARK   80  A    between atoms: _186  and  _189
REMARK   81  A    between atoms: _189  and  _190
REMARK   82  A    between atoms: _190  and  _191
REMARK   83  A    between atoms: _193  and  _195
REMARK   84  A    between atoms: _195  and  _196
REMARK   85  A    between atoms: _195  and  _198
REMARK   86  A    between atoms: _198  and  _199
REMARK   87  A    between atoms: _204  and  _205
REMARK   88  A    between atoms: _207  and  _209
REMARK   89  A    between atoms: _209  and  _210
REMARK   90  A    between atoms: _209  and  _212
REMARK   91  A    between atoms: _212  and  _213
REMARK   92  A    between atoms: _213  and  _214
REMARK   93  A    between atoms: _214  and  _215
REMARK   94  A    between atoms: _215  and  _216
REMARK   95  A    between atoms: _220  and  _222
REMARK   96  A    between atoms: _222  and  _223
REMARK   97  A    between atoms: _222  and  _225
REMARK   98  A    between atoms: _227  and  _229
REMARK   99  A    between atoms: _229  and  _230
REMARK  100  A    between atoms: _229  and  _232
REMARK  101  A    between atoms: _232  and  _233
REMARK  102  A    between atoms: _233  and  _234
REMARK  103  A    between atoms: _237  and  _239
REMARK  104  A    between atoms: _239  and  _240
REMARK  105  A    between atoms: _239  and  _242
REMARK  106  A    between atoms: _242  and  _243
REMARK  107  A    between atoms: _248  and  _250
REMARK  108  A    between atoms: _250  and  _251
REMARK  109  A    between atoms: _254  and  _256
REMARK  110  A    between atoms: _256  and  _257
REMARK  111  A    between atoms: _256  and  _259
REMARK  112  A    between atoms: _259  and  _260
REMARK  113  A    between atoms: _260  and  _261
REMARK  114  A    between atoms: _263  and  _265
REMARK  115  A    between atoms: _265  and  _266
REMARK  116  A    between atoms: _265  and  _268
REMARK  117  A    between atoms: _268  and  _269
REMARK  118  A    between atoms: _279  and  _281
REMARK  119  A    between atoms: _281  and  _282
REMARK  120  A    between atoms: _281  and  _284
REMARK  121  A    between atoms: _284  and  _285
REMARK  122  A    between atoms: _288  and  _290
REMARK  123  A    between atoms: _290  and  _291
REMARK  124  A    between atoms: _290  and  _293
REMARK  125  A    between atoms: _293  and  _294
REMARK  126  A    between atoms: _294  and  _295
REMARK  127  A    between atoms: _300  and  _302
REMARK  128  A    between atoms: _302  and  _303
REMARK  129  A    between atoms: _302  and  _305
REMARK  130  A    between atoms: _305  and  _306
REMARK  131  A    between atoms: _309  and  _311
REMARK  132  A    between atoms: _311  and  _312
REMARK  133  A    between atoms: _311  and  _314
REMARK  134  A    between atoms: _314  and  _315
REMARK  135  A    between atoms: _315  and  _316
REMARK  136  A    between atoms: _321  and  _323
REMARK  137  A    between atoms: _323  and  _324
REMARK  138  A    between atoms: _323  and  _326
REMARK  139  A    between atoms: _326  and  _327
REMARK  140  A    between atoms: _333  and  _335
REMARK  141  A    between atoms: _335  and  _336
REMARK  142  A    between atoms: _335  and  _338
REMARK  143  A    between atoms: _340  and  _342
REMARK  144  A    between atoms: _342  and  _343
REMARK  145  A    between atoms: _342  and  _345
REMARK  146  A    between atoms: _345  and  _346
REMARK  147  A    between atoms: _346  and  _347
REMARK  148  A    between atoms: _349  and  _351
REMARK  149  A    between atoms: _351  and  _352
REMARK  150  A    between atoms: _351  and  _354
REMARK  151  A    between atoms: _354  and  _355
REMARK  152  A    between atoms: _360  and  _362
REMARK  153  A    between atoms: _362  and  _363
REMARK  154  A    between atoms: _365  and  _367
REMARK  155  A    between atoms: _367  and  _368
REMARK  156  A    between atoms: _367  and  _370
REMARK  157  A    between atoms: _373  and  _375
REMARK  158  A    between atoms: _375  and  _376
REMARK  159  A    between atoms: _375  and  _378
REMARK  160  A    between atoms: _378  and  _379
REMARK  161  A    between atoms: _379  and  _380
REMARK  162  A    between atoms: _383  and  _385
REMARK  163  A    between atoms: _385  and  _386
REMARK  164  A    between atoms: _385  and  _388
REMARK  165  A    between atoms: _388  and  _389
REMARK  166  A    between atoms: _392  and  _394
REMARK  167  A    between atoms: _394  and  _395
REMARK  168  A    between atoms: _394  and  _397
REMARK  169  A    between atoms: _397  and  _398
REMARK  170  A    between atoms: _400  and  _402
REMARK  171  A    between atoms: _402  and  _403
REMARK  172  A    between atoms: _402  and  _405
REMARK  173  A    between atoms: _405  and  _406
REMARK  174  A    between atoms: _416  and  _418
REMARK  175  A    between atoms: _418  and  _419
REMARK  176  A    between atoms: _418  and  _421
REMARK  177  A    between atoms: _421  and  _422
REMARK  178  A    between atoms: _424  and  _426
REMARK  179  A    between atoms: _426  and  _427
REMARK  180  A    between atoms: _426  and  _429
REMARK  181  A    between atoms: _429  and  _430
REMARK  182  A    between atoms: _430  and  _431
REMARK  183  A    between atoms: _434  and  _436
REMARK  184  A    between atoms: _436  and  _437
REMARK  185  A    between atoms: _436  and  _439
REMARK  186  A    between atoms: _439  and  _440
REMARK  187  A    between atoms: _440  and  _441
REMARK  188  A    between atoms: _441  and  _442
REMARK                            x       y       z     vdW  Elec       q    Type
REMARK                         _______ _______ _______ _____ _____    ______ ____
ROOT
ATOM      1  O   HOH     1     -17.413 -19.989 -26.608  0.00  0.00    +0.000 OA
ENDROOT
TORSDOF 0
REMARK  Name = ../refined-set-2016/3t08/3t08_pocket.pdb
REMARK  188 active torsions:
REMARK  status: ('A' for Active; 'I' for Inactive)
REMARK    1  A    between atoms: _1  and  _3
REMARK    2  A    between atoms: _3  and  _4
REMARK    3  A    between atoms: _3  and  _6
REMARK    4  A    between atoms: _6  and  _7
REMARK    5  A    between atoms: _12  and  _13
REMARK    6  A    between atoms: _15  and  _17
REMARK    7  A    between atoms: _17  and  _18
REMARK    8  A    between atoms: _17  and  _20
REMARK    9  A    between atoms: _20  and  _21
REMARK   10  A    between atoms: _26  and  _28
REMARK   11  A    between atoms: _28  and  _29
REMARK   12  A    between atoms: _28  and  _31
REMARK   13  A    between atoms: _34  and  _36
REMARK   14  A    between atoms: _36  and  _37
REMARK   15  A    between atoms: _36  and  _39
REMARK   16  A    between atoms: _39  and  _40
REMARK   17  A    between atoms: _43  and  _45
REMARK   18  A    between atoms: _45  and  _46
REMARK   19  A    between atoms: _45  and  _48
REMARK   20  A    between atoms: _48  and  _49
REMARK   21  A    between atoms: _49  and  _50
REMARK   22  A    between atoms: _55  and  _57
REMARK   23  A    between atoms: _57  and  _58
REMARK   24  A    between atoms: _57  and  _60
REMARK   25  A    between atoms: _60  and  _61
REMARK   26  A    between atoms: _64  and  _66
REMARK   27  A    between atoms: _66  and  _67
REMARK   28  A    between atoms: _66  and  _69
REMARK   29  A    between atoms: _69  and  _70
REMARK   30  A    between atoms: _70  and  _71
REMARK   31  A    between atoms: _73  and  _75
REMARK   32  A    between atoms: _75  and  _76
REMARK   33  A    between atoms: _75  and  _78
REMARK   34  A    between atoms: _78  and  _79
REMARK   35  A    between atoms: _84  and  _86
REMARK   36  A    between atoms: _86  and  _87
REMARK   37  A    between atoms: _86  and  _89
REMARK   38  A    between atoms: _89  and  _90
REMARK   39  A    between atoms: _95  and  _97
REMARK   40  A    between atoms: _97  and  _98
REMARK   41  A    between atoms: _97  and  _100
REMARK   42  A    between atoms: _100  and  _101
REMARK   43  A    between atoms: _101  and  _102
REMARK   44  A    between atoms: _102  and  _103
REMARK   45  A    between atoms: _112  and  _114
REMARK   46  A    between atoms: _114  and  _115
REMARK   47  A    between atoms: _114  and  _117
REMARK   48  A    between atoms: _117  and  _118
REMARK   49  A    between atoms: _123  and  _125
REMARK   50  A    between atoms: _125  and  _126
REMARK   51  A    between atoms: _125  and  _128
REMARK   52  A    between atoms: _128  and  _129
REMARK   53  A    between atoms: _129  and  _130
REMARK   54  A    between atoms: _133  and  _135
REMARK   55  A    between atoms: _135  and  _136
REMARK   56  A    between atoms: _135  and  _138
REMARK   57  A    between atoms: _138  and  _139
REMARK   58  A    between atoms: _140  and  MG_451
REMARK   59  A    between atoms: _144  and  _146
REMARK   60  A    between atoms: _146  and  _147
REMARK   61  A    between atoms: _146  and  _149
REMARK   62  A    between atoms: _149  and  _150
REMARK   63  A    between atoms: _150  and  _151
REMARK   64  A    between atoms: _153  and  _155
REMARK   65  A    between atoms: _155  and  _156
REMARK   66  A    between atoms: _155  and  _158
REMARK   67  A    between atoms: _158  and  _159
REMARK   68  A    between atoms: _164  and  _166
REMARK   69  A    between atoms: _166  and  _167
REMARK   70  A    between atoms: _166  and  _169
REMARK   71  A    between atoms: _169  and  _170
REMARK   72  A    between atoms: _170  and  _171
REMARK   73  A    between atoms: _174  and  _176
REMARK   74  A    between atoms: _176  and  _177
REMARK   75  A    between atoms: _176  and  _179
REMARK   76  A    between atoms: _179  and  _180
REMARK   77  A    between atoms: _180  and  _181
REMARK   78  A    between atoms: _184  and  _186
REMARK   79  A    between atoms: _186  and  _187
REMARK   80  A    between atoms: _186  and  _189
REMARK   81  A    between atoms: _189  and  _190
REMARK   82  A    between atoms: _190  and  _191
REMARK   83  A    between atoms: _193  and  _195
REMARK   84  A    between atoms: _195  and  _196
REMARK   85  A    between atoms: _195  and  _198
REMARK   86  A    between atoms: _198  and  _199
REMARK   87  A    between atoms: _204  and  _205
REMARK   88  A    between atoms: _207  and  _209
REMARK   89  A    between atoms: _209  and  _210
REMARK   90  A    between atoms: _209  and  _212
REMARK   91  A    between atoms: _212  and  _213
REMARK   92  A    between atoms: _213  and  _214
REMARK   93  A    between atoms: _214  and  _215
REMARK   94  A    between atoms: _215  and  _216
REMARK   95  A    between atoms: _220  and  _222
REMARK   96  A    between atoms: _222  and  _223
REMARK   97  A    between atoms: _222  and  _225
REMARK   98  A    between atoms: _227  and  _229
REMARK   99  A    between atoms: _229  and  _230
REMARK  100  A    between atoms: _229  and  _232
REMARK  101  A    between atoms: _232  and  _233
REMARK  102  A    between atoms: _233  and  _234
REMARK  103  A    between atoms: _237  and  _239
REMARK  104  A    between atoms: _239  and  _240
REMARK  105  A    between atoms: _239  and  _242
REMARK  106  A    between atoms: _242  and  _243
REMARK  107  A    between atoms: _248  and  _250
REMARK  108  A    between atoms: _250  and  _251
REMARK  109  A    between atoms: _254  and  _256
REMARK  110  A    between atoms: _256  and  _257
REMARK  111  A    between atoms: _256  and  _259
REMARK  112  A    between atoms: _259  and  _260
REMARK  113  A    between atoms: _260  and  _261
REMARK  114  A    between atoms: _263  and  _265
REMARK  115  A    between atoms: _265  and  _266
REMARK  116  A    between atoms: _265  and  _268
REMARK  117  A    between atoms: _268  and  _269
REMARK  118  A    between atoms: _279  and  _281
REMARK  119  A    between atoms: _281  and  _282
REMARK  120  A    between atoms: _281  and  _284
REMARK  121  A    between atoms: _284  and  _285
REMARK  122  A    between atoms: _288  and  _290
REMARK  123  A    between atoms: _290  and  _291
REMARK  124  A    between atoms: _290  and  _293
REMARK  125  A    between atoms: _293  and  _294
REMARK  126  A    between atoms: _294  and  _295
REMARK  127  A    between atoms: _300  and  _302
REMARK  128  A    between atoms: _302  and  _303
REMARK  129  A    between atoms: _302  and  _305
REMARK  130  A    between atoms: _305  and  _306
REMARK  131  A    between atoms: _309  and  _311
REMARK  132  A    between atoms: _311  and  _312
REMARK  133  A    between atoms: _311  and  _314
REMARK  134  A    between atoms: _314  and  _315
REMARK  135  A    between atoms: _315  and  _316
REMARK  136  A    between atoms: _321  and  _323
REMARK  137  A    between atoms: _323  and  _324
REMARK  138  A    between atoms: _323  and  _326
REMARK  139  A    between atoms: _326  and  _327
REMARK  140  A    between atoms: _333  and  _335
REMARK  141  A    between atoms: _335  and  _336
REMARK  142  A    between atoms: _335  and  _338
REMARK  143  A    between atoms: _340  and  _342
REMARK  144  A    between atoms: _342  and  _343
REMARK  145  A    between atoms: _342  and  _345
REMARK  146  A    between atoms: _345  and  _346
REMARK  147  A    between atoms: _346  and  _347
REMARK  148  A    between atoms: _349  and  _351
REMARK  149  A    between atoms: _351  and  _352
REMARK  150  A    between atoms: _351  and  _354
REMARK  151  A    between atoms: _354  and  _355
REMARK  152  A    between atoms: _360  and  _362
REMARK  153  A    between atoms: _362  and  _363
REMARK  154  A    between atoms: _365  and  _367
REMARK  155  A    between atoms: _367  and  _368
REMARK  156  A    between atoms: _367  and  _370
REMARK  157  A    between atoms: _373  and  _375
REMARK  158  A    between atoms: _375  and  _376
REMARK  159  A    between atoms: _375  and  _378
REMARK  160  A    between atoms: _378  and  _379
REMARK  161  A    between atoms: _379  and  _380
REMARK  162  A    between atoms: _383  and  _385
REMARK  163  A    between atoms: _385  and  _386
REMARK  164  A    between atoms: _385  and  _388
REMARK  165  A    between atoms: _388  and  _389
REMARK  166  A    between atoms: _392  and  _394
REMARK  167  A    between atoms: _394  and  _395
REMARK  168  A    between atoms: _394  and  _397
REMARK  169  A    between atoms: _397  and  _398
REMARK  170  A    between atoms: _400  and  _402
REMARK  171  A    between atoms: _402  and  _403
REMARK  172  A    between atoms: _402  and  _405
REMARK  173  A    between atoms: _405  and  _406
REMARK  174  A    between atoms: _416  and  _418
REMARK  175  A    between atoms: _418  and  _419
REMARK  176  A    between atoms: _418  and  _421
REMARK  177  A    between atoms: _421  and  _422
REMARK  178  A    between atoms: _424  and  _426
REMARK  179  A    between atoms: _426  and  _427
REMARK  180  A    between atoms: _426  and  _429
REMARK  181  A    between atoms: _429  and  _430
REMARK  182  A    between atoms: _430  and  _431
REMARK  183  A    between atoms: _434  and  _436
REMARK  184  A    between atoms: _436  and  _437
REMARK  185  A    between atoms: _436  and  _439
REMARK  186  A    between atoms: _439  and  _440
REMARK  187  A    between atoms: _440  and  _441
REMARK  188  A    between atoms: _441  and  _442
REMARK                            x       y       z     vdW  Elec       q    Type
REMARK                         _______ _______ _______ _____ _____    ______ ____
ROOT
ATOM      1  O   HOH     1     -22.811 -32.960 -30.890  0.00  0.00    +0.000 OA
ENDROOT
TORSDOF 0
REMARK  Name = ../refined-set-2016/3t08/3t08_pocket.pdb
REMARK  188 active torsions:
REMARK  status: ('A' for Active; 'I' for Inactive)
REMARK    1  A    between atoms: _1  and  _3
REMARK    2  A    between atoms: _3  and  _4
REMARK    3  A    between atoms: _3  and  _6
REMARK    4  A    between atoms: _6  and  _7
REMARK    5  A    between atoms: _12  and  _13
REMARK    6  A    between atoms: _15  and  _17
REMARK    7  A    between atoms: _17  and  _18
REMARK    8  A    between atoms: _17  and  _20
REMARK    9  A    between atoms: _20  and  _21
REMARK   10  A    between atoms: _26  and  _28
REMARK   11  A    between atoms: _28  and  _29
REMARK   12  A    between atoms: _28  and  _31
REMARK   13  A    between atoms: _34  and  _36
REMARK   14  A    between atoms: _36  and  _37
REMARK   15  A    between atoms: _36  and  _39
REMARK   16  A    between atoms: _39  and  _40
REMARK   17  A    between atoms: _43  and  _45
REMARK   18  A    between atoms: _45  and  _46
REMARK   19  A    between atoms: _45  and  _48
REMARK   20  A    between atoms: _48  and  _49
REMARK   21  A    between atoms: _49  and  _50
REMARK   22  A    between atoms: _55  and  _57
REMARK   23  A    between atoms: _57  and  _58
REMARK   24  A    between atoms: _57  and  _60
REMARK   25  A    between atoms: _60  and  _61
REMARK   26  A    between atoms: _64  and  _66
REMARK   27  A    between atoms: _66  and  _67
REMARK   28  A    between atoms: _66  and  _69
REMARK   29  A    between atoms: _69  and  _70
REMARK   30  A    between atoms: _70  and  _71
REMARK   31  A    between atoms: _73  and  _75
REMARK   32  A    between atoms: _75  and  _76
REMARK   33  A    between atoms: _75  and  _78
REMARK   34  A    between atoms: _78  and  _79
REMARK   35  A    between atoms: _84  and  _86
REMARK   36  A    between atoms: _86  and  _87
REMARK   37  A    between atoms: _86  and  _89
REMARK   38  A    between atoms: _89  and  _90
REMARK   39  A    between atoms: _95  and  _97
REMARK   40  A    between atoms: _97  and  _98
REMARK   41  A    between atoms: _97  and  _100
REMARK   42  A    between atoms: _100  and  _101
REMARK   43  A    between atoms: _101  and  _102
REMARK   44  A    between atoms: _102  and  _103
REMARK   45  A    between atoms: _112  and  _114
REMARK   46  A    between atoms: _114  and  _115
REMARK   47  A    between atoms: _114  and  _117
REMARK   48  A    between atoms: _117  and  _118
REMARK   49  A    between atoms: _123  and  _125
REMARK   50  A    between atoms: _125  and  _126
REMARK   51  A    between atoms: _125  and  _128
REMARK   52  A    between atoms: _128  and  _129
REMARK   53  A    between atoms: _129  and  _130
REMARK   54  A    between atoms: _133  and  _135
REMARK   55  A    between atoms: _135  and  _136
REMARK   56  A    between atoms: _135  and  _138
REMARK   57  A    between atoms: _138  and  _139
REMARK   58  A    between atoms: _140  and  MG_451
REMARK   59  A    between atoms: _144  and  _146
REMARK   60  A    between atoms: _146  and  _147
REMARK   61  A    between atoms: _146  and  _149
REMARK   62  A    between atoms: _149  and  _150
REMARK   63  A    between atoms: _150  and  _151
REMARK   64  A    between atoms: _153  and  _155
REMARK   65  A    between atoms: _155  and  _156
REMARK   66  A    between atoms: _155  and  _158
REMARK   67  A    between atoms: _158  and  _159
REMARK   68  A    between atoms: _164  and  _166
REMARK   69  A    between atoms: _166  and  _167
REMARK   70  A    between atoms: _166  and  _169
REMARK   71  A    between atoms: _169  and  _170
REMARK   72  A    between atoms: _170  and  _171
REMARK   73  A    between atoms: _174  and  _176
REMARK   74  A    between atoms: _176  and  _177
REMARK   75  A    between atoms: _176  and  _179
REMARK   76  A    between atoms: _179  and  _180
REMARK   77  A    between atoms: _180  and  _181
REMARK   78  A    between atoms: _184  and  _186
REMARK   79  A    between atoms: _186  and  _187
REMARK   80  A    between atoms: _186  and  _189
REMARK   81  A    between atoms: _189  and  _190
REMARK   82  A    between atoms: _190  and  _191
REMARK   83  A    between atoms: _193  and  _195
REMARK   84  A    between atoms: _195  and  _196
REMARK   85  A    between atoms: _195  and  _198
REMARK   86  A    between atoms: _198  and  _199
REMARK   87  A    between atoms: _204  and  _205
REMARK   88  A    between atoms: _207  and  _209
REMARK   89  A    between atoms: _209  and  _210
REMARK   90  A    between atoms: _209  and  _212
REMARK   91  A    between atoms: _212  and  _213
REMARK   92  A    between atoms: _213  and  _214
REMARK   93  A    between atoms: _214  and  _215
REMARK   94  A    between atoms: _215  and  _216
REMARK   95  A    between atoms: _220  and  _222
REMARK   96  A    between atoms: _222  and  _223
REMARK   97  A    between atoms: _222  and  _225
REMARK   98  A    between atoms: _227  and  _229
REMARK   99  A    between atoms: _229  and  _230
REMARK  100  A    between atoms: _229  and  _232
REMARK  101  A    between atoms: _232  and  _233
REMARK  102  A    between atoms: _233  and  _234
REMARK  103  A    between atoms: _237  and  _239
REMARK  104  A    between atoms: _239  and  _240
REMARK  105  A    between atoms: _239  and  _242
REMARK  106  A    between atoms: _242  and  _243
REMARK  107  A    between atoms: _248  and  _250
REMARK  108  A    between atoms: _250  and  _251
REMARK  109  A    between atoms: _254  and  _256
REMARK  110  A    between atoms: _256  and  _257
REMARK  111  A    between atoms: _256  and  _259
REMARK  112  A    between atoms: _259  and  _260
REMARK  113  A    between atoms: _260  and  _261
REMARK  114  A    between atoms: _263  and  _265
REMARK  115  A    between atoms: _265  and  _266
REMARK  116  A    between atoms: _265  and  _268
REMARK  117  A    between atoms: _268  and  _269
REMARK  118  A    between atoms: _279  and  _281
REMARK  119  A    between atoms: _281  and  _282
REMARK  120  A    between atoms: _281  and  _284
REMARK  121  A    between atoms: _284  and  _285
REMARK  122  A    between atoms: _288  and  _290
REMARK  123  A    between atoms: _290  and  _291
REMARK  124  A    between atoms: _290  and  _293
REMARK  125  A    between atoms: _293  and  _294
REMARK  126  A    between atoms: _294  and  _295
REMARK  127  A    between atoms: _300  and  _302
REMARK  128  A    between atoms: _302  and  _303
REMARK  129  A    between atoms: _302  and  _305
REMARK  130  A    between atoms: _305  and  _306
REMARK  131  A    between atoms: _309  and  _311
REMARK  132  A    between atoms: _311  and  _312
REMARK  133  A    between atoms: _311  and  _314
REMARK  134  A    between atoms: _314  and  _315
REMARK  135  A    between atoms: _315  and  _316
REMARK  136  A    between atoms: _321  and  _323
REMARK  137  A    between atoms: _323  and  _324
REMARK  138  A    between atoms: _323  and  _326
REMARK  139  A    between atoms: _326  and  _327
REMARK  140  A    between atoms: _333  and  _335
REMARK  141  A    between atoms: _335  and  _336
REMARK  142  A    between atoms: _335  and  _338
REMARK  143  A    between atoms: _340  and  _342
REMARK  144  A    between atoms: _342  and  _343
REMARK  145  A    between atoms: _342  and  _345
REMARK  146  A    between atoms: _345  and  _346
REMARK  147  A    between atoms: _346  and  _347
REMARK  148  A    between atoms: _349  and  _351
REMARK  149  A    between atoms: _351  and  _352
REMARK  150  A    between atoms: _351  and  _354
REMARK  151  A    between atoms: _354  and  _355
REMARK  152  A    between atoms: _360  and  _362
REMARK  153  A    between atoms: _362  and  _363
REMARK  154  A    between atoms: _365  and  _367
REMARK  155  A    between atoms: _367  and  _368
REMARK  156  A    between atoms: _367  and  _370
REMARK  157  A    between atoms: _373  and  _375
REMARK  158  A    between atoms: _375  and  _376
REMARK  159  A    between atoms: _375  and  _378
REMARK  160  A    between atoms: _378  and  _379
REMARK  161  A    between atoms: _379  and  _380
REMARK  162  A    between atoms: _383  and  _385
REMARK  163  A    between atoms: _385  and  _386
REMARK  164  A    between atoms: _385  and  _388
REMARK  165  A    between atoms: _388  and  _389
REMARK  166  A    between atoms: _392  and  _394
REMARK  167  A    between atoms: _394  and  _395
REMARK  168  A    between atoms: _394  and  _397
REMARK  169  A    between atoms: _397  and  _398
REMARK  170  A    between atoms: _400  and  _402
REMARK  171  A    between atoms: _402  and  _403
REMARK  172  A    between atoms: _402  and  _405
REMARK  173  A    between atoms: _405  and  _406
REMARK  174  A    between atoms: _416  and  _418
REMARK  175  A    between atoms: _418  and  _419
REMARK  176  A    between atoms: _418  and  _421
REMARK  177  A    between atoms: _421  and  _422
REMARK  178  A    between atoms: _424  and  _426
REMARK  179  A    between atoms: _426  and  _427
REMARK  180  A    between atoms: _426  and  _429
REMARK  181  A    between atoms: _429  and  _430
REMARK  182  A    between atoms: _430  and  _431
REMARK  183  A    between atoms: _434  and  _436
REMARK  184  A    between atoms: _436  and  _437
REMARK  185  A    between atoms: _436  and  _439
REMARK  186  A    between atoms: _439  and  _440
REMARK  187  A    between atoms: _440  and  _441
REMARK  188  A    between atoms: _441  and  _442
REMARK                            x       y       z     vdW  Elec       q    Type
REMARK                         _______ _______ _______ _____ _____    ______ ____
ROOT
ATOM      1  O   HOH     1      -9.873 -31.195 -23.859  0.00  0.00    +0.000 OA
ENDROOT
TORSDOF 0
REMARK  Name = ../refined-set-2016/3t08/3t08_pocket.pdb
REMARK  188 active torsions:
REMARK  status: ('A' for Active; 'I' for Inactive)
REMARK    1  A    between atoms: _1  and  _3
REMARK    2  A    between atoms: _3  and  _4
REMARK    3  A    between atoms: _3  and  _6
REMARK    4  A    between atoms: _6  and  _7
REMARK    5  A    between atoms: _12  and  _13
REMARK    6  A    between atoms: _15  and  _17
REMARK    7  A    between atoms: _17  and  _18
REMARK    8  A    between atoms: _17  and  _20
REMARK    9  A    between atoms: _20  and  _21
REMARK   10  A    between atoms: _26  and  _28
REMARK   11  A    between atoms: _28  and  _29
REMARK   12  A    between atoms: _28  and  _31
REMARK   13  A    between atoms: _34  and  _36
REMARK   14  A    between atoms: _36  and  _37
REMARK   15  A    between atoms: _36  and  _39
REMARK   16  A    between atoms: _39  and  _40
REMARK   17  A    between atoms: _43  and  _45
REMARK   18  A    between atoms: _45  and  _46
REMARK   19  A    between atoms: _45  and  _48
REMARK   20  A    between atoms: _48  and  _49
REMARK   21  A    between atoms: _49  and  _50
REMARK   22  A    between atoms: _55  and  _57
REMARK   23  A    between atoms: _57  and  _58
REMARK   24  A    between atoms: _57  and  _60
REMARK   25  A    between atoms: _60  and  _61
REMARK   26  A    between atoms: _64  and  _66
REMARK   27  A    between atoms: _66  and  _67
REMARK   28  A    between atoms: _66  and  _69
REMARK   29  A    between atoms: _69  and  _70
REMARK   30  A    between atoms: _70  and  _71
REMARK   31  A    between atoms: _73  and  _75
REMARK   32  A    between atoms: _75  and  _76
REMARK   33  A    between atoms: _75  and  _78
REMARK   34  A    between atoms: _78  and  _79
REMARK   35  A    between atoms: _84  and  _86
REMARK   36  A    between atoms: _86  and  _87
REMARK   37  A    between atoms: _86  and  _89
REMARK   38  A    between atoms: _89  and  _90
REMARK   39  A    between atoms: _95  and  _97
REMARK   40  A    between atoms: _97  and  _98
REMARK   41  A    between atoms: _97  and  _100
REMARK   42  A    between atoms: _100  and  _101
REMARK   43  A    between atoms: _101  and  _102
REMARK   44  A    between atoms: _102  and  _103
REMARK   45  A    between atoms: _112  and  _114
REMARK   46  A    between atoms: _114  and  _115
REMARK   47  A    between atoms: _114  and  _117
REMARK   48  A    between atoms: _117  and  _118
REMARK   49  A    between atoms: _123  and  _125
REMARK   50  A    between atoms: _125  and  _126
REMARK   51  A    between atoms: _125  and  _128
REMARK   52  A    between atoms: _128  and  _129
REMARK   53  A    between atoms: _129  and  _130
REMARK   54  A    between atoms: _133  and  _135
REMARK   55  A    between atoms: _135  and  _136
REMARK   56  A    between atoms: _135  and  _138
REMARK   57  A    between atoms: _138  and  _139
REMARK   58  A    between atoms: _140  and  MG_451
REMARK   59  A    between atoms: _144  and  _146
REMARK   60  A    between atoms: _146  and  _147
REMARK   61  A    between atoms: _146  and  _149
REMARK   62  A    between atoms: _149  and  _150
REMARK   63  A    between atoms: _150  and  _151
REMARK   64  A    between atoms: _153  and  _155
REMARK   65  A    between atoms: _155  and  _156
REMARK   66  A    between atoms: _155  and  _158
REMARK   67  A    between atoms: _158  and  _159
REMARK   68  A    between atoms: _164  and  _166
REMARK   69  A    between atoms: _166  and  _167
REMARK   70  A    between atoms: _166  and  _169
REMARK   71  A    between atoms: _169  and  _170
REMARK   72  A    between atoms: _170  and  _171
REMARK   73  A    between atoms: _174  and  _176
REMARK   74  A    between atoms: _176  and  _177
REMARK   75  A    between atoms: _176  and  _179
REMARK   76  A    between atoms: _179  and  _180
REMARK   77  A    between atoms: _180  and  _181
REMARK   78  A    between atoms: _184  and  _186
REMARK   79  A    between atoms: _186  and  _187
REMARK   80  A    between atoms: _186  and  _189
REMARK   81  A    between atoms: _189  and  _190
REMARK   82  A    between atoms: _190  and  _191
REMARK   83  A    between atoms: _193  and  _195
REMARK   84  A    between atoms: _195  and  _196
REMARK   85  A    between atoms: _195  and  _198
REMARK   86  A    between atoms: _198  and  _199
REMARK   87  A    between atoms: _204  and  _205
REMARK   88  A    between atoms: _207  and  _209
REMARK   89  A    between atoms: _209  and  _210
REMARK   90  A    between atoms: _209  and  _212
REMARK   91  A    between atoms: _212  and  _213
REMARK   92  A    between atoms: _213  and  _214
REMARK   93  A    between atoms: _214  and  _215
REMARK   94  A    between atoms: _215  and  _216
REMARK   95  A    between atoms: _220  and  _222
REMARK   96  A    between atoms: _222  and  _223
REMARK   97  A    between atoms: _222  and  _225
REMARK   98  A    between atoms: _227  and  _229
REMARK   99  A    between atoms: _229  and  _230
REMARK  100  A    between atoms: _229  and  _232
REMARK  101  A    between atoms: _232  and  _233
REMARK  102  A    between atoms: _233  and  _234
REMARK  103  A    between atoms: _237  and  _239
REMARK  104  A    between atoms: _239  and  _240
REMARK  105  A    between atoms: _239  and  _242
REMARK  106  A    between atoms: _242  and  _243
REMARK  107  A    between atoms: _248  and  _250
REMARK  108  A    between atoms: _250  and  _251
REMARK  109  A    between atoms: _254  and  _256
REMARK  110  A    between atoms: _256  and  _257
REMARK  111  A    between atoms: _256  and  _259
REMARK  112  A    between atoms: _259  and  _260
REMARK  113  A    between atoms: _260  and  _261
REMARK  114  A    between atoms: _263  and  _265
REMARK  115  A    between atoms: _265  and  _266
REMARK  116  A    between atoms: _265  and  _268
REMARK  117  A    between atoms: _268  and  _269
REMARK  118  A    between atoms: _279  and  _281
REMARK  119  A    between atoms: _281  and  _282
REMARK  120  A    between atoms: _281  and  _284
REMARK  121  A    between atoms: _284  and  _285
REMARK  122  A    between atoms: _288  and  _290
REMARK  123  A    between atoms: _290  and  _291
REMARK  124  A    between atoms: _290  and  _293
REMARK  125  A    between atoms: _293  and  _294
REMARK  126  A    between atoms: _294  and  _295
REMARK  127  A    between atoms: _300  and  _302
REMARK  128  A    between atoms: _302  and  _303
REMARK  129  A    between atoms: _302  and  _305
REMARK  130  A    between atoms: _305  and  _306
REMARK  131  A    between atoms: _309  and  _311
REMARK  132  A    between atoms: _311  and  _312
REMARK  133  A    between atoms: _311  and  _314
REMARK  134  A    between atoms: _314  and  _315
REMARK  135  A    between atoms: _315  and  _316
REMARK  136  A    between atoms: _321  and  _323
REMARK  137  A    between atoms: _323  and  _324
REMARK  138  A    between atoms: _323  and  _326
REMARK  139  A    between atoms: _326  and  _327
REMARK  140  A    between atoms: _333  and  _335
REMARK  141  A    between atoms: _335  and  _336
REMARK  142  A    between atoms: _335  and  _338
REMARK  143  A    between atoms: _340  and  _342
REMARK  144  A    between atoms: _342  and  _343
REMARK  145  A    between atoms: _342  and  _345
REMARK  146  A    between atoms: _345  and  _346
REMARK  147  A    between atoms: _346  and  _347
REMARK  148  A    between atoms: _349  and  _351
REMARK  149  A    between atoms: _351  and  _352
REMARK  150  A    between atoms: _351  and  _354
REMARK  151  A    between atoms: _354  and  _355
REMARK  152  A    between atoms: _360  and  _362
REMARK  153  A    between atoms: _362  and  _363
REMARK  154  A    between atoms: _365  and  _367
REMARK  155  A    between atoms: _367  and  _368
REMARK  156  A    between atoms: _367  and  _370
REMARK  157  A    between atoms: _373  and  _375
REMARK  158  A    between atoms: _375  and  _376
REMARK  159  A    between atoms: _375  and  _378
REMARK  160  A    between atoms: _378  and  _379
REMARK  161  A    between atoms: _379  and  _380
REMARK  162  A    between atoms: _383  and  _385
REMARK  163  A    between atoms: _385  and  _386
REMARK  164  A    between atoms: _385  and  _388
REMARK  165  A    between atoms: _388  and  _389
REMARK  166  A    between atoms: _392  and  _394
REMARK  167  A    between atoms: _394  and  _395
REMARK  168  A    between atoms: _394  and  _397
REMARK  169  A    between atoms: _397  and  _398
REMARK  170  A    between atoms: _400  and  _402
REMARK  171  A    between atoms: _402  and  _403
REMARK  172  A    between atoms: _402  and  _405
REMARK  173  A    between atoms: _405  and  _406
REMARK  174  A    between atoms: _416  and  _418
REMARK  175  A    between atoms: _418  and  _419
REMARK  176  A    between atoms: _418  and  _421
REMARK  177  A    between atoms: _421  and  _422
REMARK  178  A    between atoms: _424  and  _426
REMARK  179  A    between atoms: _426  and  _427
REMARK  180  A    between atoms: _426  and  _429
REMARK  181  A    between atoms: _429  and  _430
REMARK  182  A    between atoms: _430  and  _431
REMARK  183  A    between atoms: _434  and  _436
REMARK  184  A    between atoms: _436  and  _437
REMARK  185  A    between atoms: _436  and  _439
REMARK  186  A    between atoms: _439  and  _440
REMARK  187  A    between atoms: _440  and  _441
REMARK  188  A    between atoms: _441  and  _442
REMARK                            x       y       z     vdW  Elec       q    Type
REMARK                         _______ _______ _______ _____ _____    ______ ____
ROOT
ATOM      1  O   HOH     1     -16.839 -26.966 -21.330  0.00  0.00    +0.000 OA
ENDROOT
TORSDOF 0
REMARK  Name = ../refined-set-2016/3t08/3t08_pocket.pdb
REMARK  188 active torsions:
REMARK  status: ('A' for Active; 'I' for Inactive)
REMARK    1  A    between atoms: _1  and  _3
REMARK    2  A    between atoms: _3  and  _4
REMARK    3  A    between atoms: _3  and  _6
REMARK    4  A    between atoms: _6  and  _7
REMARK    5  A    between atoms: _12  and  _13
REMARK    6  A    between atoms: _15  and  _17
REMARK    7  A    between atoms: _17  and  _18
REMARK    8  A    between atoms: _17  and  _20
REMARK    9  A    between atoms: _20  and  _21
REMARK   10  A    between atoms: _26  and  _28
REMARK   11  A    between atoms: _28  and  _29
REMARK   12  A    between atoms: _28  and  _31
REMARK   13  A    between atoms: _34  and  _36
REMARK   14  A    between atoms: _36  and  _37
REMARK   15  A    between atoms: _36  and  _39
REMARK   16  A    between atoms: _39  and  _40
REMARK   17  A    between atoms: _43  and  _45
REMARK   18  A    between atoms: _45  and  _46
REMARK   19  A    between atoms: _45  and  _48
REMARK   20  A    between atoms: _48  and  _49
REMARK   21  A    between atoms: _49  and  _50
REMARK   22  A    between atoms: _55  and  _57
REMARK   23  A    between atoms: _57  and  _58
REMARK   24  A    between atoms: _57  and  _60
REMARK   25  A    between atoms: _60  and  _61
REMARK   26  A    between atoms: _64  and  _66
REMARK   27  A    between atoms: _66  and  _67
REMARK   28  A    between atoms: _66  and  _69
REMARK   29  A    between atoms: _69  and  _70
REMARK   30  A    between atoms: _70  and  _71
REMARK   31  A    between atoms: _73  and  _75
REMARK   32  A    between atoms: _75  and  _76
REMARK   33  A    between atoms: _75  and  _78
REMARK   34  A    between atoms: _78  and  _79
REMARK   35  A    between atoms: _84  and  _86
REMARK   36  A    between atoms: _86  and  _87
REMARK   37  A    between atoms: _86  and  _89
REMARK   38  A    between atoms: _89  and  _90
REMARK   39  A    between atoms: _95  and  _97
REMARK   40  A    between atoms: _97  and  _98
REMARK   41  A    between atoms: _97  and  _100
REMARK   42  A    between atoms: _100  and  _101
REMARK   43  A    between atoms: _101  and  _102
REMARK   44  A    between atoms: _102  and  _103
REMARK   45  A    between atoms: _112  and  _114
REMARK   46  A    between atoms: _114  and  _115
REMARK   47  A    between atoms: _114  and  _117
REMARK   48  A    between atoms: _117  and  _118
REMARK   49  A    between atoms: _123  and  _125
REMARK   50  A    between atoms: _125  and  _126
REMARK   51  A    between atoms: _125  and  _128
REMARK   52  A    between atoms: _128  and  _129
REMARK   53  A    between atoms: _129  and  _130
REMARK   54  A    between atoms: _133  and  _135
REMARK   55  A    between atoms: _135  and  _136
REMARK   56  A    between atoms: _135  and  _138
REMARK   57  A    between atoms: _138  and  _139
REMARK   58  A    between atoms: _140  and  MG_451
REMARK   59  A    between atoms: _144  and  _146
REMARK   60  A    between atoms: _146  and  _147
REMARK   61  A    between atoms: _146  and  _149
REMARK   62  A    between atoms: _149  and  _150
REMARK   63  A    between atoms: _150  and  _151
REMARK   64  A    between atoms: _153  and  _155
REMARK   65  A    between atoms: _155  and  _156
REMARK   66  A    between atoms: _155  and  _158
REMARK   67  A    between atoms: _158  and  _159
REMARK   68  A    between atoms: _164  and  _166
REMARK   69  A    between atoms: _166  and  _167
REMARK   70  A    between atoms: _166  and  _169
REMARK   71  A    between atoms: _169  and  _170
REMARK   72  A    between atoms: _170  and  _171
REMARK   73  A    between atoms: _174  and  _176
REMARK   74  A    between atoms: _176  and  _177
REMARK   75  A    between atoms: _176  and  _179
REMARK   76  A    between atoms: _179  and  _180
REMARK   77  A    between atoms: _180  and  _181
REMARK   78  A    between atoms: _184  and  _186
REMARK   79  A    between atoms: _186  and  _187
REMARK   80  A    between atoms: _186  and  _189
REMARK   81  A    between atoms: _189  and  _190
REMARK   82  A    between atoms: _190  and  _191
REMARK   83  A    between atoms: _193  and  _195
REMARK   84  A    between atoms: _195  and  _196
REMARK   85  A    between atoms: _195  and  _198
REMARK   86  A    between atoms: _198  and  _199
REMARK   87  A    between atoms: _204  and  _205
REMARK   88  A    between atoms: _207  and  _209
REMARK   89  A    between atoms: _209  and  _210
REMARK   90  A    between atoms: _209  and  _212
REMARK   91  A    between atoms: _212  and  _213
REMARK   92  A    between atoms: _213  and  _214
REMARK   93  A    between atoms: _214  and  _215
REMARK   94  A    between atoms: _215  and  _216
REMARK   95  A    between atoms: _220  and  _222
REMARK   96  A    between atoms: _222  and  _223
REMARK   97  A    between atoms: _222  and  _225
REMARK   98  A    between atoms: _227  and  _229
REMARK   99  A    between atoms: _229  and  _230
REMARK  100  A    between atoms: _229  and  _232
REMARK  101  A    between atoms: _232  and  _233
REMARK  102  A    between atoms: _233  and  _234
REMARK  103  A    between atoms: _237  and  _239
REMARK  104  A    between atoms: _239  and  _240
REMARK  105  A    between atoms: _239  and  _242
REMARK  106  A    between atoms: _242  and  _243
REMARK  107  A    between atoms: _248  and  _250
REMARK  108  A    between atoms: _250  and  _251
REMARK  109  A    between atoms: _254  and  _256
REMARK  110  A    between atoms: _256  and  _257
REMARK  111  A    between atoms: _256  and  _259
REMARK  112  A    between atoms: _259  and  _260
REMARK  113  A    between atoms: _260  and  _261
REMARK  114  A    between atoms: _263  and  _265
REMARK  115  A    between atoms: _265  and  _266
REMARK  116  A    between atoms: _265  and  _268
REMARK  117  A    between atoms: _268  and  _269
REMARK  118  A    between atoms: _279  and  _281
REMARK  119  A    between atoms: _281  and  _282
REMARK  120  A    between atoms: _281  and  _284
REMARK  121  A    between atoms: _284  and  _285
REMARK  122  A    between atoms: _288  and  _290
REMARK  123  A    between atoms: _290  and  _291
REMARK  124  A    between atoms: _290  and  _293
REMARK  125  A    between atoms: _293  and  _294
REMARK  126  A    between atoms: _294  and  _295
REMARK  127  A    between atoms: _300  and  _302
REMARK  128  A    between atoms: _302  and  _303
REMARK  129  A    between atoms: _302  and  _305
REMARK  130  A    between atoms: _305  and  _306
REMARK  131  A    between atoms: _309  and  _311
REMARK  132  A    between atoms: _311  and  _312
REMARK  133  A    between atoms: _311  and  _314
REMARK  134  A    between atoms: _314  and  _315
REMARK  135  A    between atoms: _315  and  _316
REMARK  136  A    between atoms: _321  and  _323
REMARK  137  A    between atoms: _323  and  _324
REMARK  138  A    between atoms: _323  and  _326
REMARK  139  A    between atoms: _326  and  _327
REMARK  140  A    between atoms: _333  and  _335
REMARK  141  A    between atoms: _335  and  _336
REMARK  142  A    between atoms: _335  and  _338
REMARK  143  A    between atoms: _340  and  _342
REMARK  144  A    between atoms: _342  and  _343
REMARK  145  A    between atoms: _342  and  _345
REMARK  146  A    between atoms: _345  and  _346
REMARK  147  A    between atoms: _346  and  _347
REMARK  148  A    between atoms: _349  and  _351
REMARK  149  A    between atoms: _351  and  _352
REMARK  150  A    between atoms: _351  and  _354
REMARK  151  A    between atoms: _354  and  _355
REMARK  152  A    between atoms: _360  and  _362
REMARK  153  A    between atoms: _362  and  _363
REMARK  154  A    between atoms: _365  and  _367
REMARK  155  A    between atoms: _367  and  _368
REMARK  156  A    between atoms: _367  and  _370
REMARK  157  A    between atoms: _373  and  _375
REMARK  158  A    between atoms: _375  and  _376
REMARK  159  A    between atoms: _375  and  _378
REMARK  160  A    between atoms: _378  and  _379
REMARK  161  A    between atoms: _379  and  _380
REMARK  162  A    between atoms: _383  and  _385
REMARK  163  A    between atoms: _385  and  _386
REMARK  164  A    between atoms: _385  and  _388
REMARK  165  A    between atoms: _388  and  _389
REMARK  166  A    between atoms: _392  and  _394
REMARK  167  A    between atoms: _394  and  _395
REMARK  168  A    between atoms: _394  and  _397
REMARK  169  A    between atoms: _397  and  _398
REMARK  170  A    between atoms: _400  and  _402
REMARK  171  A    between atoms: _402  and  _403
REMARK  172  A    between atoms: _402  and  _405
REMARK  173  A    between atoms: _405  and  _406
REMARK  174  A    between atoms: _416  and  _418
REMARK  175  A    between atoms: _418  and  _419
REMARK  176  A    between atoms: _418  and  _421
REMARK  177  A    between atoms: _421  and  _422
REMARK  178  A    between atoms: _424  and  _426
REMARK  179  A    between atoms: _426  and  _427
REMARK  180  A    between atoms: _426  and  _429
REMARK  181  A    between atoms: _429  and  _430
REMARK  182  A    between atoms: _430  and  _431
REMARK  183  A    between atoms: _434  and  _436
REMARK  184  A    between atoms: _436  and  _437
REMARK  185  A    between atoms: _436  and  _439
REMARK  186  A    between atoms: _439  and  _440
REMARK  187  A    between atoms: _440  and  _441
REMARK  188  A    between atoms: _441  and  _442
REMARK                            x       y       z     vdW  Elec       q    Type
REMARK                         _______ _______ _______ _____ _____    ______ ____
ROOT
ATOM      1  O   HOH     1     -20.449 -22.432 -24.435  0.00  0.00    +0.000 OA
ENDROOT
TORSDOF 0
REMARK  Name = ../refined-set-2016/3t08/3t08_pocket.pdb
REMARK  188 active torsions:
REMARK  status: ('A' for Active; 'I' for Inactive)
REMARK    1  A    between atoms: _1  and  _3
REMARK    2  A    between atoms: _3  and  _4
REMARK    3  A    between atoms: _3  and  _6
REMARK    4  A    between atoms: _6  and  _7
REMARK    5  A    between atoms: _12  and  _13
REMARK    6  A    between atoms: _15  and  _17
REMARK    7  A    between atoms: _17  and  _18
REMARK    8  A    between atoms: _17  and  _20
REMARK    9  A    between atoms: _20  and  _21
REMARK   10  A    between atoms: _26  and  _28
REMARK   11  A    between atoms: _28  and  _29
REMARK   12  A    between atoms: _28  and  _31
REMARK   13  A    between atoms: _34  and  _36
REMARK   14  A    between atoms: _36  and  _37
REMARK   15  A    between atoms: _36  and  _39
REMARK   16  A    between atoms: _39  and  _40
REMARK   17  A    between atoms: _43  and  _45
REMARK   18  A    between atoms: _45  and  _46
REMARK   19  A    between atoms: _45  and  _48
REMARK   20  A    between atoms: _48  and  _49
REMARK   21  A    between atoms: _49  and  _50
REMARK   22  A    between atoms: _55  and  _57
REMARK   23  A    between atoms: _57  and  _58
REMARK   24  A    between atoms: _57  and  _60
REMARK   25  A    between atoms: _60  and  _61
REMARK   26  A    between atoms: _64  and  _66
REMARK   27  A    between atoms: _66  and  _67
REMARK   28  A    between atoms: _66  and  _69
REMARK   29  A    between atoms: _69  and  _70
REMARK   30  A    between atoms: _70  and  _71
REMARK   31  A    between atoms: _73  and  _75
REMARK   32  A    between atoms: _75  and  _76
REMARK   33  A    between atoms: _75  and  _78
REMARK   34  A    between atoms: _78  and  _79
REMARK   35  A    between atoms: _84  and  _86
REMARK   36  A    between atoms: _86  and  _87
REMARK   37  A    between atoms: _86  and  _89
REMARK   38  A    between atoms: _89  and  _90
REMARK   39  A    between atoms: _95  and  _97
REMARK   40  A    between atoms: _97  and  _98
REMARK   41  A    between atoms: _97  and  _100
REMARK   42  A    between atoms: _100  and  _101
REMARK   43  A    between atoms: _101  and  _102
REMARK   44  A    between atoms: _102  and  _103
REMARK   45  A    between atoms: _112  and  _114
REMARK   46  A    between atoms: _114  and  _115
REMARK   47  A    between atoms: _114  and  _117
REMARK   48  A    between atoms: _117  and  _118
REMARK   49  A    between atoms: _123  and  _125
REMARK   50  A    between atoms: _125  and  _126
REMARK   51  A    between atoms: _125  and  _128
REMARK   52  A    between atoms: _128  and  _129
REMARK   53  A    between atoms: _129  and  _130
REMARK   54  A    between atoms: _133  and  _135
REMARK   55  A    between atoms: _135  and  _136
REMARK   56  A    between atoms: _135  and  _138
REMARK   57  A    between atoms: _138  and  _139
REMARK   58  A    between atoms: _140  and  MG_451
REMARK   59  A    between atoms: _144  and  _146
REMARK   60  A    between atoms: _146  and  _147
REMARK   61  A    between atoms: _146  and  _149
REMARK   62  A    between atoms: _149  and  _150
REMARK   63  A    between atoms: _150  and  _151
REMARK   64  A    between atoms: _153  and  _155
REMARK   65  A    between atoms: _155  and  _156
REMARK   66  A    between atoms: _155  and  _158
REMARK   67  A    between atoms: _158  and  _159
REMARK   68  A    between atoms: _164  and  _166
REMARK   69  A    between atoms: _166  and  _167
REMARK   70  A    between atoms: _166  and  _169
REMARK   71  A    between atoms: _169  and  _170
REMARK   72  A    between atoms: _170  and  _171
REMARK   73  A    between atoms: _174  and  _176
REMARK   74  A    between atoms: _176  and  _177
REMARK   75  A    between atoms: _176  and  _179
REMARK   76  A    between atoms: _179  and  _180
REMARK   77  A    between atoms: _180  and  _181
REMARK   78  A    between atoms: _184  and  _186
REMARK   79  A    between atoms: _186  and  _187
REMARK   80  A    between atoms: _186  and  _189
REMARK   81  A    between atoms: _189  and  _190
REMARK   82  A    between atoms: _190  and  _191
REMARK   83  A    between atoms: _193  and  _195
REMARK   84  A    between atoms: _195  and  _196
REMARK   85  A    between atoms: _195  and  _198
REMARK   86  A    between atoms: _198  and  _199
REMARK   87  A    between atoms: _204  and  _205
REMARK   88  A    between atoms: _207  and  _209
REMARK   89  A    between atoms: _209  and  _210
REMARK   90  A    between atoms: _209  and  _212
REMARK   91  A    between atoms: _212  and  _213
REMARK   92  A    between atoms: _213  and  _214
REMARK   93  A    between atoms: _214  and  _215
REMARK   94  A    between atoms: _215  and  _216
REMARK   95  A    between atoms: _220  and  _222
REMARK   96  A    between atoms: _222  and  _223
REMARK   97  A    between atoms: _222  and  _225
REMARK   98  A    between atoms: _227  and  _229
REMARK   99  A    between atoms: _229  and  _230
REMARK  100  A    between atoms: _229  and  _232
REMARK  101  A    between atoms: _232  and  _233
REMARK  102  A    between atoms: _233  and  _234
REMARK  103  A    between atoms: _237  and  _239
REMARK  104  A    between atoms: _239  and  _240
REMARK  105  A    between atoms: _239  and  _242
REMARK  106  A    between atoms: _242  and  _243
REMARK  107  A    between atoms: _248  and  _250
REMARK  108  A    between atoms: _250  and  _251
REMARK  109  A    between atoms: _254  and  _256
REMARK  110  A    between atoms: _256  and  _257
REMARK  111  A    between atoms: _256  and  _259
REMARK  112  A    between atoms: _259  and  _260
REMARK  113  A    between atoms: _260  and  _261
REMARK  114  A    between atoms: _263  and  _265
REMARK  115  A    between atoms: _265  and  _266
REMARK  116  A    between atoms: _265  and  _268
REMARK  117  A    between atoms: _268  and  _269
REMARK  118  A    between atoms: _279  and  _281
REMARK  119  A    between atoms: _281  and  _282
REMARK  120  A    between atoms: _281  and  _284
REMARK  121  A    between atoms: _284  and  _285
REMARK  122  A    between atoms: _288  and  _290
REMARK  123  A    between atoms: _290  and  _291
REMARK  124  A    between atoms: _290  and  _293
REMARK  125  A    between atoms: _293  and  _294
REMARK  126  A    between atoms: _294  and  _295
REMARK  127  A    between atoms: _300  and  _302
REMARK  128  A    between atoms: _302  and  _303
REMARK  129  A    between atoms: _302  and  _305
REMARK  130  A    between atoms: _305  and  _306
REMARK  131  A    between atoms: _309  and  _311
REMARK  132  A    between atoms: _311  and  _312
REMARK  133  A    between atoms: _311  and  _314
REMARK  134  A    between atoms: _314  and  _315
REMARK  135  A    between atoms: _315  and  _316
REMARK  136  A    between atoms: _321  and  _323
REMARK  137  A    between atoms: _323  and  _324
REMARK  138  A    between atoms: _323  and  _326
REMARK  139  A    between atoms: _326  and  _327
REMARK  140  A    between atoms: _333  and  _335
REMARK  141  A    between atoms: _335  and  _336
REMARK  142  A    between atoms: _335  and  _338
REMARK  143  A    between atoms: _340  and  _342
REMARK  144  A    between atoms: _342  and  _343
REMARK  145  A    between atoms: _342  and  _345
REMARK  146  A    between atoms: _345  and  _346
REMARK  147  A    between atoms: _346  and  _347
REMARK  148  A    between atoms: _349  and  _351
REMARK  149  A    between atoms: _351  and  _352
REMARK  150  A    between atoms: _351  and  _354
REMARK  151  A    between atoms: _354  and  _355
REMARK  152  A    between atoms: _360  and  _362
REMARK  153  A    between atoms: _362  and  _363
REMARK  154  A    between atoms: _365  and  _367
REMARK  155  A    between atoms: _367  and  _368
REMARK  156  A    between atoms: _367  and  _370
REMARK  157  A    between atoms: _373  and  _375
REMARK  158  A    between atoms: _375  and  _376
REMARK  159  A    between atoms: _375  and  _378
REMARK  160  A    between atoms: _378  and  _379
REMARK  161  A    between atoms: _379  and  _380
REMARK  162  A    between atoms: _383  and  _385
REMARK  163  A    between atoms: _385  and  _386
REMARK  164  A    between atoms: _385  and  _388
REMARK  165  A    between atoms: _388  and  _389
REMARK  166  A    between atoms: _392  and  _394
REMARK  167  A    between atoms: _394  and  _395
REMARK  168  A    between atoms: _394  and  _397
REMARK  169  A    between atoms: _397  and  _398
REMARK  170  A    between atoms: _400  and  _402
REMARK  171  A    between atoms: _402  and  _403
REMARK  172  A    between atoms: _402  and  _405
REMARK  173  A    between atoms: _405  and  _406
REMARK  174  A    between atoms: _416  and  _418
REMARK  175  A    between atoms: _418  and  _419
REMARK  176  A    between atoms: _418  and  _421
REMARK  177  A    between atoms: _421  and  _422
REMARK  178  A    between atoms: _424  and  _426
REMARK  179  A    between atoms: _426  and  _427
REMARK  180  A    between atoms: _426  and  _429
REMARK  181  A    between atoms: _429  and  _430
REMARK  182  A    between atoms: _430  and  _431
REMARK  183  A    between atoms: _434  and  _436
REMARK  184  A    between atoms: _436  and  _437
REMARK  185  A    between atoms: _436  and  _439
REMARK  186  A    between atoms: _439  and  _440
REMARK  187  A    between atoms: _440  and  _441
REMARK  188  A    between atoms: _441  and  _442
REMARK                            x       y       z     vdW  Elec       q    Type
REMARK                         _______ _______ _______ _____ _____    ______ ____
ROOT
ATOM      1  O   HOH     1     -12.756 -30.596 -24.635  0.00  0.00    +0.000 OA
ENDROOT
TORSDOF 0
REMARK  Name = ../refined-set-2016/3t08/3t08_pocket.pdb
REMARK  188 active torsions:
REMARK  status: ('A' for Active; 'I' for Inactive)
REMARK    1  A    between atoms: _1  and  _3
REMARK    2  A    between atoms: _3  and  _4
REMARK    3  A    between atoms: _3  and  _6
REMARK    4  A    between atoms: _6  and  _7
REMARK    5  A    between atoms: _12  and  _13
REMARK    6  A    between atoms: _15  and  _17
REMARK    7  A    between atoms: _17  and  _18
REMARK    8  A    between atoms: _17  and  _20
REMARK    9  A    between atoms: _20  and  _21
REMARK   10  A    between atoms: _26  and  _28
REMARK   11  A    between atoms: _28  and  _29
REMARK   12  A    between atoms: _28  and  _31
REMARK   13  A    between atoms: _34  and  _36
REMARK   14  A    between atoms: _36  and  _37
REMARK   15  A    between atoms: _36  and  _39
REMARK   16  A    between atoms: _39  and  _40
REMARK   17  A    between atoms: _43  and  _45
REMARK   18  A    between atoms: _45  and  _46
REMARK   19  A    between atoms: _45  and  _48
REMARK   20  A    between atoms: _48  and  _49
REMARK   21  A    between atoms: _49  and  _50
REMARK   22  A    between atoms: _55  and  _57
REMARK   23  A    between atoms: _57  and  _58
REMARK   24  A    between atoms: _57  and  _60
REMARK   25  A    between atoms: _60  and  _61
REMARK   26  A    between atoms: _64  and  _66
REMARK   27  A    between atoms: _66  and  _67
REMARK   28  A    between atoms: _66  and  _69
REMARK   29  A    between atoms: _69  and  _70
REMARK   30  A    between atoms: _70  and  _71
REMARK   31  A    between atoms: _73  and  _75
REMARK   32  A    between atoms: _75  and  _76
REMARK   33  A    between atoms: _75  and  _78
REMARK   34  A    between atoms: _78  and  _79
REMARK   35  A    between atoms: _84  and  _86
REMARK   36  A    between atoms: _86  and  _87
REMARK   37  A    between atoms: _86  and  _89
REMARK   38  A    between atoms: _89  and  _90
REMARK   39  A    between atoms: _95  and  _97
REMARK   40  A    between atoms: _97  and  _98
REMARK   41  A    between atoms: _97  and  _100
REMARK   42  A    between atoms: _100  and  _101
REMARK   43  A    between atoms: _101  and  _102
REMARK   44  A    between atoms: _102  and  _103
REMARK   45  A    between atoms: _112  and  _114
REMARK   46  A    between atoms: _114  and  _115
REMARK   47  A    between atoms: _114  and  _117
REMARK   48  A    between atoms: _117  and  _118
REMARK   49  A    between atoms: _123  and  _125
REMARK   50  A    between atoms: _125  and  _126
REMARK   51  A    between atoms: _125  and  _128
REMARK   52  A    between atoms: _128  and  _129
REMARK   53  A    between atoms: _129  and  _130
REMARK   54  A    between atoms: _133  and  _135
REMARK   55  A    between atoms: _135  and  _136
REMARK   56  A    between atoms: _135  and  _138
REMARK   57  A    between atoms: _138  and  _139
REMARK   58  A    between atoms: _140  and  MG_451
REMARK   59  A    between atoms: _144  and  _146
REMARK   60  A    between atoms: _146  and  _147
REMARK   61  A    between atoms: _146  and  _149
REMARK   62  A    between atoms: _149  and  _150
REMARK   63  A    between atoms: _150  and  _151
REMARK   64  A    between atoms: _153  and  _155
REMARK   65  A    between atoms: _155  and  _156
REMARK   66  A    between atoms: _155  and  _158
REMARK   67  A    between atoms: _158  and  _159
REMARK   68  A    between atoms: _164  and  _166
REMARK   69  A    between atoms: _166  and  _167
REMARK   70  A    between atoms: _166  and  _169
REMARK   71  A    between atoms: _169  and  _170
REMARK   72  A    between atoms: _170  and  _171
REMARK   73  A    between atoms: _174  and  _176
REMARK   74  A    between atoms: _176  and  _177
REMARK   75  A    between atoms: _176  and  _179
REMARK   76  A    between atoms: _179  and  _180
REMARK   77  A    between atoms: _180  and  _181
REMARK   78  A    between atoms: _184  and  _186
REMARK   79  A    between atoms: _186  and  _187
REMARK   80  A    between atoms: _186  and  _189
REMARK   81  A    between atoms: _189  and  _190
REMARK   82  A    between atoms: _190  and  _191
REMARK   83  A    between atoms: _193  and  _195
REMARK   84  A    between atoms: _195  and  _196
REMARK   85  A    between atoms: _195  and  _198
REMARK   86  A    between atoms: _198  and  _199
REMARK   87  A    between atoms: _204  and  _205
REMARK   88  A    between atoms: _207  and  _209
REMARK   89  A    between atoms: _209  and  _210
REMARK   90  A    between atoms: _209  and  _212
REMARK   91  A    between atoms: _212  and  _213
REMARK   92  A    between atoms: _213  and  _214
REMARK   93  A    between atoms: _214  and  _215
REMARK   94  A    between atoms: _215  and  _216
REMARK   95  A    between atoms: _220  and  _222
REMARK   96  A    between atoms: _222  and  _223
REMARK   97  A    between atoms: _222  and  _225
REMARK   98  A    between atoms: _227  and  _229
REMARK   99  A    between atoms: _229  and  _230
REMARK  100  A    between atoms: _229  and  _232
REMARK  101  A    between atoms: _232  and  _233
REMARK  102  A    between atoms: _233  and  _234
REMARK  103  A    between atoms: _237  and  _239
REMARK  104  A    between atoms: _239  and  _240
REMARK  105  A    between atoms: _239  and  _242
REMARK  106  A    between atoms: _242  and  _243
REMARK  107  A    between atoms: _248  and  _250
REMARK  108  A    between atoms: _250  and  _251
REMARK  109  A    between atoms: _254  and  _256
REMARK  110  A    between atoms: _256  and  _257
REMARK  111  A    between atoms: _256  and  _259
REMARK  112  A    between atoms: _259  and  _260
REMARK  113  A    between atoms: _260  and  _261
REMARK  114  A    between atoms: _263  and  _265
REMARK  115  A    between atoms: _265  and  _266
REMARK  116  A    between atoms: _265  and  _268
REMARK  117  A    between atoms: _268  and  _269
REMARK  118  A    between atoms: _279  and  _281
REMARK  119  A    between atoms: _281  and  _282
REMARK  120  A    between atoms: _281  and  _284
REMARK  121  A    between atoms: _284  and  _285
REMARK  122  A    between atoms: _288  and  _290
REMARK  123  A    between atoms: _290  and  _291
REMARK  124  A    between atoms: _290  and  _293
REMARK  125  A    between atoms: _293  and  _294
REMARK  126  A    between atoms: _294  and  _295
REMARK  127  A    between atoms: _300  and  _302
REMARK  128  A    between atoms: _302  and  _303
REMARK  129  A    between atoms: _302  and  _305
REMARK  130  A    between atoms: _305  and  _306
REMARK  131  A    between atoms: _309  and  _311
REMARK  132  A    between atoms: _311  and  _312
REMARK  133  A    between atoms: _311  and  _314
REMARK  134  A    between atoms: _314  and  _315
REMARK  135  A    between atoms: _315  and  _316
REMARK  136  A    between atoms: _321  and  _323
REMARK  137  A    between atoms: _323  and  _324
REMARK  138  A    between atoms: _323  and  _326
REMARK  139  A    between atoms: _326  and  _327
REMARK  140  A    between atoms: _333  and  _335
REMARK  141  A    between atoms: _335  and  _336
REMARK  142  A    between atoms: _335  and  _338
REMARK  143  A    between atoms: _340  and  _342
REMARK  144  A    between atoms: _342  and  _343
REMARK  145  A    between atoms: _342  and  _345
REMARK  146  A    between atoms: _345  and  _346
REMARK  147  A    between atoms: _346  and  _347
REMARK  148  A    between atoms: _349  and  _351
REMARK  149  A    between atoms: _351  and  _352
REMARK  150  A    between atoms: _351  and  _354
REMARK  151  A    between atoms: _354  and  _355
REMARK  152  A    between atoms: _360  and  _362
REMARK  153  A    between atoms: _362  and  _363
REMARK  154  A    between atoms: _365  and  _367
REMARK  155  A    between atoms: _367  and  _368
REMARK  156  A    between atoms: _367  and  _370
REMARK  157  A    between atoms: _373  and  _375
REMARK  158  A    between atoms: _375  and  _376
REMARK  159  A    between atoms: _375  and  _378
REMARK  160  A    between atoms: _378  and  _379
REMARK  161  A    between atoms: _379  and  _380
REMARK  162  A    between atoms: _383  and  _385
REMARK  163  A    between atoms: _385  and  _386
REMARK  164  A    between atoms: _385  and  _388
REMARK  165  A    between atoms: _388  and  _389
REMARK  166  A    between atoms: _392  and  _394
REMARK  167  A    between atoms: _394  and  _395
REMARK  168  A    between atoms: _394  and  _397
REMARK  169  A    between atoms: _397  and  _398
REMARK  170  A    between atoms: _400  and  _402
REMARK  171  A    between atoms: _402  and  _403
REMARK  172  A    between atoms: _402  and  _405
REMARK  173  A    between atoms: _405  and  _406
REMARK  174  A    between atoms: _416  and  _418
REMARK  175  A    between atoms: _418  and  _419
REMARK  176  A    between atoms: _418  and  _421
REMARK  177  A    between atoms: _421  and  _422
REMARK  178  A    between atoms: _424  and  _426
REMARK  179  A    between atoms: _426  and  _427
REMARK  180  A    between atoms: _426  and  _429
REMARK  181  A    between atoms: _429  and  _430
REMARK  182  A    between atoms: _430  and  _431
REMARK  183  A    between atoms: _434  and  _436
REMARK  184  A    between atoms: _436  and  _437
REMARK  185  A    between atoms: _436  and  _439
REMARK  186  A    between atoms: _439  and  _440
REMARK  187  A    between atoms: _440  and  _441
REMARK  188  A    between atoms: _441  and  _442
REMARK                            x       y       z     vdW  Elec       q    Type
REMARK                         _______ _______ _______ _____ _____    ______ ____
ROOT
ATOM      1  O   HOH     1     -18.014 -32.171 -29.341  0.00  0.00    +0.000 OA
ENDROOT
TORSDOF 0
REMARK  Name = ../refined-set-2016/3t08/3t08_pocket.pdb
REMARK  188 active torsions:
REMARK  status: ('A' for Active; 'I' for Inactive)
REMARK    1  A    between atoms: _1  and  _3
REMARK    2  A    between atoms: _3  and  _4
REMARK    3  A    between atoms: _3  and  _6
REMARK    4  A    between atoms: _6  and  _7
REMARK    5  A    between atoms: _12  and  _13
REMARK    6  A    between atoms: _15  and  _17
REMARK    7  A    between atoms: _17  and  _18
REMARK    8  A    between atoms: _17  and  _20
REMARK    9  A    between atoms: _20  and  _21
REMARK   10  A    between atoms: _26  and  _28
REMARK   11  A    between atoms: _28  and  _29
REMARK   12  A    between atoms: _28  and  _31
REMARK   13  A    between atoms: _34  and  _36
REMARK   14  A    between atoms: _36  and  _37
REMARK   15  A    between atoms: _36  and  _39
REMARK   16  A    between atoms: _39  and  _40
REMARK   17  A    between atoms: _43  and  _45
REMARK   18  A    between atoms: _45  and  _46
REMARK   19  A    between atoms: _45  and  _48
REMARK   20  A    between atoms: _48  and  _49
REMARK   21  A    between atoms: _49  and  _50
REMARK   22  A    between atoms: _55  and  _57
REMARK   23  A    between atoms: _57  and  _58
REMARK   24  A    between atoms: _57  and  _60
REMARK   25  A    between atoms: _60  and  _61
REMARK   26  A    between atoms: _64  and  _66
REMARK   27  A    between atoms: _66  and  _67
REMARK   28  A    between atoms: _66  and  _69
REMARK   29  A    between atoms: _69  and  _70
REMARK   30  A    between atoms: _70  and  _71
REMARK   31  A    between atoms: _73  and  _75
REMARK   32  A    between atoms: _75  and  _76
REMARK   33  A    between atoms: _75  and  _78
REMARK   34  A    between atoms: _78  and  _79
REMARK   35  A    between atoms: _84  and  _86
REMARK   36  A    between atoms: _86  and  _87
REMARK   37  A    between atoms: _86  and  _89
REMARK   38  A    between atoms: _89  and  _90
REMARK   39  A    between atoms: _95  and  _97
REMARK   40  A    between atoms: _97  and  _98
REMARK   41  A    between atoms: _97  and  _100
REMARK   42  A    between atoms: _100  and  _101
REMARK   43  A    between atoms: _101  and  _102
REMARK   44  A    between atoms: _102  and  _103
REMARK   45  A    between atoms: _112  and  _114
REMARK   46  A    between atoms: _114  and  _115
REMARK   47  A    between atoms: _114  and  _117
REMARK   48  A    between atoms: _117  and  _118
REMARK   49  A    between atoms: _123  and  _125
REMARK   50  A    between atoms: _125  and  _126
REMARK   51  A    between atoms: _125  and  _128
REMARK   52  A    between atoms: _128  and  _129
REMARK   53  A    between atoms: _129  and  _130
REMARK   54  A    between atoms: _133  and  _135
REMARK   55  A    between atoms: _135  and  _136
REMARK   56  A    between atoms: _135  and  _138
REMARK   57  A    between atoms: _138  and  _139
REMARK   58  A    between atoms: _140  and  MG_451
REMARK   59  A    between atoms: _144  and  _146
REMARK   60  A    between atoms: _146  and  _147
REMARK   61  A    between atoms: _146  and  _149
REMARK   62  A    between atoms: _149  and  _150
REMARK   63  A    between atoms: _150  and  _151
REMARK   64  A    between atoms: _153  and  _155
REMARK   65  A    between atoms: _155  and  _156
REMARK   66  A    between atoms: _155  and  _158
REMARK   67  A    between atoms: _158  and  _159
REMARK   68  A    between atoms: _164  and  _166
REMARK   69  A    between atoms: _166  and  _167
REMARK   70  A    between atoms: _166  and  _169
REMARK   71  A    between atoms: _169  and  _170
REMARK   72  A    between atoms: _170  and  _171
REMARK   73  A    between atoms: _174  and  _176
REMARK   74  A    between atoms: _176  and  _177
REMARK   75  A    between atoms: _176  and  _179
REMARK   76  A    between atoms: _179  and  _180
REMARK   77  A    between atoms: _180  and  _181
REMARK   78  A    between atoms: _184  and  _186
REMARK   79  A    between atoms: _186  and  _187
REMARK   80  A    between atoms: _186  and  _189
REMARK   81  A    between atoms: _189  and  _190
REMARK   82  A    between atoms: _190  and  _191
REMARK   83  A    between atoms: _193  and  _195
REMARK   84  A    between atoms: _195  and  _196
REMARK   85  A    between atoms: _195  and  _198
REMARK   86  A    between atoms: _198  and  _199
REMARK   87  A    between atoms: _204  and  _205
REMARK   88  A    between atoms: _207  and  _209
REMARK   89  A    between atoms: _209  and  _210
REMARK   90  A    between atoms: _209  and  _212
REMARK   91  A    between atoms: _212  and  _213
REMARK   92  A    between atoms: _213  and  _214
REMARK   93  A    between atoms: _214  and  _215
REMARK   94  A    between atoms: _215  and  _216
REMARK   95  A    between atoms: _220  and  _222
REMARK   96  A    between atoms: _222  and  _223
REMARK   97  A    between atoms: _222  and  _225
REMARK   98  A    between atoms: _227  and  _229
REMARK   99  A    between atoms: _229  and  _230
REMARK  100  A    between atoms: _229  and  _232
REMARK  101  A    between atoms: _232  and  _233
REMARK  102  A    between atoms: _233  and  _234
REMARK  103  A    between atoms: _237  and  _239
REMARK  104  A    between atoms: _239  and  _240
REMARK  105  A    between atoms: _239  and  _242
REMARK  106  A    between atoms: _242  and  _243
REMARK  107  A    between atoms: _248  and  _250
REMARK  108  A    between atoms: _250  and  _251
REMARK  109  A    between atoms: _254  and  _256
REMARK  110  A    between atoms: _256  and  _257
REMARK  111  A    between atoms: _256  and  _259
REMARK  112  A    between atoms: _259  and  _260
REMARK  113  A    between atoms: _260  and  _261
REMARK  114  A    between atoms: _263  and  _265
REMARK  115  A    between atoms: _265  and  _266
REMARK  116  A    between atoms: _265  and  _268
REMARK  117  A    between atoms: _268  and  _269
REMARK  118  A    between atoms: _279  and  _281
REMARK  119  A    between atoms: _281  and  _282
REMARK  120  A    between atoms: _281  and  _284
REMARK  121  A    between atoms: _284  and  _285
REMARK  122  A    between atoms: _288  and  _290
REMARK  123  A    between atoms: _290  and  _291
REMARK  124  A    between atoms: _290  and  _293
REMARK  125  A    between atoms: _293  and  _294
REMARK  126  A    between atoms: _294  and  _295
REMARK  127  A    between atoms: _300  and  _302
REMARK  128  A    between atoms: _302  and  _303
REMARK  129  A    between atoms: _302  and  _305
REMARK  130  A    between atoms: _305  and  _306
REMARK  131  A    between atoms: _309  and  _311
REMARK  132  A    between atoms: _311  and  _312
REMARK  133  A    between atoms: _311  and  _314
REMARK  134  A    between atoms: _314  and  _315
REMARK  135  A    between atoms: _315  and  _316
REMARK  136  A    between atoms: _321  and  _323
REMARK  137  A    between atoms: _323  and  _324
REMARK  138  A    between atoms: _323  and  _326
REMARK  139  A    between atoms: _326  and  _327
REMARK  140  A    between atoms: _333  and  _335
REMARK  141  A    between atoms: _335  and  _336
REMARK  142  A    between atoms: _335  and  _338
REMARK  143  A    between atoms: _340  and  _342
REMARK  144  A    between atoms: _342  and  _343
REMARK  145  A    between atoms: _342  and  _345
REMARK  146  A    between atoms: _345  and  _346
REMARK  147  A    between atoms: _346  and  _347
REMARK  148  A    between atoms: _349  and  _351
REMARK  149  A    between atoms: _351  and  _352
REMARK  150  A    between atoms: _351  and  _354
REMARK  151  A    between atoms: _354  and  _355
REMARK  152  A    between atoms: _360  and  _362
REMARK  153  A    between atoms: _362  and  _363
REMARK  154  A    between atoms: _365  and  _367
REMARK  155  A    between atoms: _367  and  _368
REMARK  156  A    between atoms: _367  and  _370
REMARK  157  A    between atoms: _373  and  _375
REMARK  158  A    between atoms: _375  and  _376
REMARK  159  A    between atoms: _375  and  _378
REMARK  160  A    between atoms: _378  and  _379
REMARK  161  A    between atoms: _379  and  _380
REMARK  162  A    between atoms: _383  and  _385
REMARK  163  A    between atoms: _385  and  _386
REMARK  164  A    between atoms: _385  and  _388
REMARK  165  A    between atoms: _388  and  _389
REMARK  166  A    between atoms: _392  and  _394
REMARK  167  A    between atoms: _394  and  _395
REMARK  168  A    between atoms: _394  and  _397
REMARK  169  A    between atoms: _397  and  _398
REMARK  170  A    between atoms: _400  and  _402
REMARK  171  A    between atoms: _402  and  _403
REMARK  172  A    between atoms: _402  and  _405
REMARK  173  A    between atoms: _405  and  _406
REMARK  174  A    between atoms: _416  and  _418
REMARK  175  A    between atoms: _418  and  _419
REMARK  176  A    between atoms: _418  and  _421
REMARK  177  A    between atoms: _421  and  _422
REMARK  178  A    between atoms: _424  and  _426
REMARK  179  A    between atoms: _426  and  _427
REMARK  180  A    between atoms: _426  and  _429
REMARK  181  A    between atoms: _429  and  _430
REMARK  182  A    between atoms: _430  and  _431
REMARK  183  A    between atoms: _434  and  _436
REMARK  184  A    between atoms: _436  and  _437
REMARK  185  A    between atoms: _436  and  _439
REMARK  186  A    between atoms: _439  and  _440
REMARK  187  A    between atoms: _440  and  _441
REMARK  188  A    between atoms: _441  and  _442
REMARK                            x       y       z     vdW  Elec       q    Type
REMARK                         _______ _______ _______ _____ _____    ______ ____
ROOT
ATOM      1  O   HOH     1     -14.001 -22.686 -20.457  0.00  0.00    +0.000 OA
ENDROOT
TORSDOF 0
REMARK  Name = ../refined-set-2016/3t08/3t08_pocket.pdb
REMARK  188 active torsions:
REMARK  status: ('A' for Active; 'I' for Inactive)
REMARK    1  A    between atoms: _1  and  _3
REMARK    2  A    between atoms: _3  and  _4
REMARK    3  A    between atoms: _3  and  _6
REMARK    4  A    between atoms: _6  and  _7
REMARK    5  A    between atoms: _12  and  _13
REMARK    6  A    between atoms: _15  and  _17
REMARK    7  A    between atoms: _17  and  _18
REMARK    8  A    between atoms: _17  and  _20
REMARK    9  A    between atoms: _20  and  _21
REMARK   10  A    between atoms: _26  and  _28
REMARK   11  A    between atoms: _28  and  _29
REMARK   12  A    between atoms: _28  and  _31
REMARK   13  A    between atoms: _34  and  _36
REMARK   14  A    between atoms: _36  and  _37
REMARK   15  A    between atoms: _36  and  _39
REMARK   16  A    between atoms: _39  and  _40
REMARK   17  A    between atoms: _43  and  _45
REMARK   18  A    between atoms: _45  and  _46
REMARK   19  A    between atoms: _45  and  _48
REMARK   20  A    between atoms: _48  and  _49
REMARK   21  A    between atoms: _49  and  _50
REMARK   22  A    between atoms: _55  and  _57
REMARK   23  A    between atoms: _57  and  _58
REMARK   24  A    between atoms: _57  and  _60
REMARK   25  A    between atoms: _60  and  _61
REMARK   26  A    between atoms: _64  and  _66
REMARK   27  A    between atoms: _66  and  _67
REMARK   28  A    between atoms: _66  and  _69
REMARK   29  A    between atoms: _69  and  _70
REMARK   30  A    between atoms: _70  and  _71
REMARK   31  A    between atoms: _73  and  _75
REMARK   32  A    between atoms: _75  and  _76
REMARK   33  A    between atoms: _75  and  _78
REMARK   34  A    between atoms: _78  and  _79
REMARK   35  A    between atoms: _84  and  _86
REMARK   36  A    between atoms: _86  and  _87
REMARK   37  A    between atoms: _86  and  _89
REMARK   38  A    between atoms: _89  and  _90
REMARK   39  A    between atoms: _95  and  _97
REMARK   40  A    between atoms: _97  and  _98
REMARK   41  A    between atoms: _97  and  _100
REMARK   42  A    between atoms: _100  and  _101
REMARK   43  A    between atoms: _101  and  _102
REMARK   44  A    between atoms: _102  and  _103
REMARK   45  A    between atoms: _112  and  _114
REMARK   46  A    between atoms: _114  and  _115
REMARK   47  A    between atoms: _114  and  _117
REMARK   48  A    between atoms: _117  and  _118
REMARK   49  A    between atoms: _123  and  _125
REMARK   50  A    between atoms: _125  and  _126
REMARK   51  A    between atoms: _125  and  _128
REMARK   52  A    between atoms: _128  and  _129
REMARK   53  A    between atoms: _129  and  _130
REMARK   54  A    between atoms: _133  and  _135
REMARK   55  A    between atoms: _135  and  _136
REMARK   56  A    between atoms: _135  and  _138
REMARK   57  A    between atoms: _138  and  _139
REMARK   58  A    between atoms: _140  and  MG_451
REMARK   59  A    between atoms: _144  and  _146
REMARK   60  A    between atoms: _146  and  _147
REMARK   61  A    between atoms: _146  and  _149
REMARK   62  A    between atoms: _149  and  _150
REMARK   63  A    between atoms: _150  and  _151
REMARK   64  A    between atoms: _153  and  _155
REMARK   65  A    between atoms: _155  and  _156
REMARK   66  A    between atoms: _155  and  _158
REMARK   67  A    between atoms: _158  and  _159
REMARK   68  A    between atoms: _164  and  _166
REMARK   69  A    between atoms: _166  and  _167
REMARK   70  A    between atoms: _166  and  _169
REMARK   71  A    between atoms: _169  and  _170
REMARK   72  A    between atoms: _170  and  _171
REMARK   73  A    between atoms: _174  and  _176
REMARK   74  A    between atoms: _176  and  _177
REMARK   75  A    between atoms: _176  and  _179
REMARK   76  A    between atoms: _179  and  _180
REMARK   77  A    between atoms: _180  and  _181
REMARK   78  A    between atoms: _184  and  _186
REMARK   79  A    between atoms: _186  and  _187
REMARK   80  A    between atoms: _186  and  _189
REMARK   81  A    between atoms: _189  and  _190
REMARK   82  A    between atoms: _190  and  _191
REMARK   83  A    between atoms: _193  and  _195
REMARK   84  A    between atoms: _195  and  _196
REMARK   85  A    between atoms: _195  and  _198
REMARK   86  A    between atoms: _198  and  _199
REMARK   87  A    between atoms: _204  and  _205
REMARK   88  A    between atoms: _207  and  _209
REMARK   89  A    between atoms: _209  and  _210
REMARK   90  A    between atoms: _209  and  _212
REMARK   91  A    between atoms: _212  and  _213
REMARK   92  A    between atoms: _213  and  _214
REMARK   93  A    between atoms: _214  and  _215
REMARK   94  A    between atoms: _215  and  _216
REMARK   95  A    between atoms: _220  and  _222
REMARK   96  A    between atoms: _222  and  _223
REMARK   97  A    between atoms: _222  and  _225
REMARK   98  A    between atoms: _227  and  _229
REMARK   99  A    between atoms: _229  and  _230
REMARK  100  A    between atoms: _229  and  _232
REMARK  101  A    between atoms: _232  and  _233
REMARK  102  A    between atoms: _233  and  _234
REMARK  103  A    between atoms: _237  and  _239
REMARK  104  A    between atoms: _239  and  _240
REMARK  105  A    between atoms: _239  and  _242
REMARK  106  A    between atoms: _242  and  _243
REMARK  107  A    between atoms: _248  and  _250
REMARK  108  A    between atoms: _250  and  _251
REMARK  109  A    between atoms: _254  and  _256
REMARK  110  A    between atoms: _256  and  _257
REMARK  111  A    between atoms: _256  and  _259
REMARK  112  A    between atoms: _259  and  _260
REMARK  113  A    between atoms: _260  and  _261
REMARK  114  A    between atoms: _263  and  _265
REMARK  115  A    between atoms: _265  and  _266
REMARK  116  A    between atoms: _265  and  _268
REMARK  117  A    between atoms: _268  and  _269
REMARK  118  A    between atoms: _279  and  _281
REMARK  119  A    between atoms: _281  and  _282
REMARK  120  A    between atoms: _281  and  _284
REMARK  121  A    between atoms: _284  and  _285
REMARK  122  A    between atoms: _288  and  _290
REMARK  123  A    between atoms: _290  and  _291
REMARK  124  A    between atoms: _290  and  _293
REMARK  125  A    between atoms: _293  and  _294
REMARK  126  A    between atoms: _294  and  _295
REMARK  127  A    between atoms: _300  and  _302
REMARK  128  A    between atoms: _302  and  _303
REMARK  129  A    between atoms: _302  and  _305
REMARK  130  A    between atoms: _305  and  _306
REMARK  131  A    between atoms: _309  and  _311
REMARK  132  A    between atoms: _311  and  _312
REMARK  133  A    between atoms: _311  and  _314
REMARK  134  A    between atoms: _314  and  _315
REMARK  135  A    between atoms: _315  and  _316
REMARK  136  A    between atoms: _321  and  _323
REMARK  137  A    between atoms: _323  and  _324
REMARK  138  A    between atoms: _323  and  _326
REMARK  139  A    between atoms: _326  and  _327
REMARK  140  A    between atoms: _333  and  _335
REMARK  141  A    between atoms: _335  and  _336
REMARK  142  A    between atoms: _335  and  _338
REMARK  143  A    between atoms: _340  and  _342
REMARK  144  A    between atoms: _342  and  _343
REMARK  145  A    between atoms: _342  and  _345
REMARK  146  A    between atoms: _345  and  _346
REMARK  147  A    between atoms: _346  and  _347
REMARK  148  A    between atoms: _349  and  _351
REMARK  149  A    between atoms: _351  and  _352
REMARK  150  A    between atoms: _351  and  _354
REMARK  151  A    between atoms: _354  and  _355
REMARK  152  A    between atoms: _360  and  _362
REMARK  153  A    between atoms: _362  and  _363
REMARK  154  A    between atoms: _365  and  _367
REMARK  155  A    between atoms: _367  and  _368
REMARK  156  A    between atoms: _367  and  _370
REMARK  157  A    between atoms: _373  and  _375
REMARK  158  A    between atoms: _375  and  _376
REMARK  159  A    between atoms: _375  and  _378
REMARK  160  A    between atoms: _378  and  _379
REMARK  161  A    between atoms: _379  and  _380
REMARK  162  A    between atoms: _383  and  _385
REMARK  163  A    between atoms: _385  and  _386
REMARK  164  A    between atoms: _385  and  _388
REMARK  165  A    between atoms: _388  and  _389
REMARK  166  A    between atoms: _392  and  _394
REMARK  167  A    between atoms: _394  and  _395
REMARK  168  A    between atoms: _394  and  _397
REMARK  169  A    between atoms: _397  and  _398
REMARK  170  A    between atoms: _400  and  _402
REMARK  171  A    between atoms: _402  and  _403
REMARK  172  A    between atoms: _402  and  _405
REMARK  173  A    between atoms: _405  and  _406
REMARK  174  A    between atoms: _416  and  _418
REMARK  175  A    between atoms: _418  and  _419
REMARK  176  A    between atoms: _418  and  _421
REMARK  177  A    between atoms: _421  and  _422
REMARK  178  A    between atoms: _424  and  _426
REMARK  179  A    between atoms: _426  and  _427
REMARK  180  A    between atoms: _426  and  _429
REMARK  181  A    between atoms: _429  and  _430
REMARK  182  A    between atoms: _430  and  _431
REMARK  183  A    between atoms: _434  and  _436
REMARK  184  A    between atoms: _436  and  _437
REMARK  185  A    between atoms: _436  and  _439
REMARK  186  A    between atoms: _439  and  _440
REMARK  187  A    between atoms: _440  and  _441
REMARK  188  A    between atoms: _441  and  _442
REMARK                            x       y       z     vdW  Elec       q    Type
REMARK                         _______ _______ _______ _____ _____    ______ ____
ROOT
ATOM      1  O   HOH     1     -20.077 -29.470 -21.474  0.00  0.00    +0.000 OA
ENDROOT
TORSDOF 0
REMARK  Name = ../refined-set-2016/3t08/3t08_pocket.pdb
REMARK  188 active torsions:
REMARK  status: ('A' for Active; 'I' for Inactive)
REMARK    1  A    between atoms: _1  and  _3
REMARK    2  A    between atoms: _3  and  _4
REMARK    3  A    between atoms: _3  and  _6
REMARK    4  A    between atoms: _6  and  _7
REMARK    5  A    between atoms: _12  and  _13
REMARK    6  A    between atoms: _15  and  _17
REMARK    7  A    between atoms: _17  and  _18
REMARK    8  A    between atoms: _17  and  _20
REMARK    9  A    between atoms: _20  and  _21
REMARK   10  A    between atoms: _26  and  _28
REMARK   11  A    between atoms: _28  and  _29
REMARK   12  A    between atoms: _28  and  _31
REMARK   13  A    between atoms: _34  and  _36
REMARK   14  A    between atoms: _36  and  _37
REMARK   15  A    between atoms: _36  and  _39
REMARK   16  A    between atoms: _39  and  _40
REMARK   17  A    between atoms: _43  and  _45
REMARK   18  A    between atoms: _45  and  _46
REMARK   19  A    between atoms: _45  and  _48
REMARK   20  A    between atoms: _48  and  _49
REMARK   21  A    between atoms: _49  and  _50
REMARK   22  A    between atoms: _55  and  _57
REMARK   23  A    between atoms: _57  and  _58
REMARK   24  A    between atoms: _57  and  _60
REMARK   25  A    between atoms: _60  and  _61
REMARK   26  A    between atoms: _64  and  _66
REMARK   27  A    between atoms: _66  and  _67
REMARK   28  A    between atoms: _66  and  _69
REMARK   29  A    between atoms: _69  and  _70
REMARK   30  A    between atoms: _70  and  _71
REMARK   31  A    between atoms: _73  and  _75
REMARK   32  A    between atoms: _75  and  _76
REMARK   33  A    between atoms: _75  and  _78
REMARK   34  A    between atoms: _78  and  _79
REMARK   35  A    between atoms: _84  and  _86
REMARK   36  A    between atoms: _86  and  _87
REMARK   37  A    between atoms: _86  and  _89
REMARK   38  A    between atoms: _89  and  _90
REMARK   39  A    between atoms: _95  and  _97
REMARK   40  A    between atoms: _97  and  _98
REMARK   41  A    between atoms: _97  and  _100
REMARK   42  A    between atoms: _100  and  _101
REMARK   43  A    between atoms: _101  and  _102
REMARK   44  A    between atoms: _102  and  _103
REMARK   45  A    between atoms: _112  and  _114
REMARK   46  A    between atoms: _114  and  _115
REMARK   47  A    between atoms: _114  and  _117
REMARK   48  A    between atoms: _117  and  _118
REMARK   49  A    between atoms: _123  and  _125
REMARK   50  A    between atoms: _125  and  _126
REMARK   51  A    between atoms: _125  and  _128
REMARK   52  A    between atoms: _128  and  _129
REMARK   53  A    between atoms: _129  and  _130
REMARK   54  A    between atoms: _133  and  _135
REMARK   55  A    between atoms: _135  and  _136
REMARK   56  A    between atoms: _135  and  _138
REMARK   57  A    between atoms: _138  and  _139
REMARK   58  A    between atoms: _140  and  MG_451
REMARK   59  A    between atoms: _144  and  _146
REMARK   60  A    between atoms: _146  and  _147
REMARK   61  A    between atoms: _146  and  _149
REMARK   62  A    between atoms: _149  and  _150
REMARK   63  A    between atoms: _150  and  _151
REMARK   64  A    between atoms: _153  and  _155
REMARK   65  A    between atoms: _155  and  _156
REMARK   66  A    between atoms: _155  and  _158
REMARK   67  A    between atoms: _158  and  _159
REMARK   68  A    between atoms: _164  and  _166
REMARK   69  A    between atoms: _166  and  _167
REMARK   70  A    between atoms: _166  and  _169
REMARK   71  A    between atoms: _169  and  _170
REMARK   72  A    between atoms: _170  and  _171
REMARK   73  A    between atoms: _174  and  _176
REMARK   74  A    between atoms: _176  and  _177
REMARK   75  A    between atoms: _176  and  _179
REMARK   76  A    between atoms: _179  and  _180
REMARK   77  A    between atoms: _180  and  _181
REMARK   78  A    between atoms: _184  and  _186
REMARK   79  A    between atoms: _186  and  _187
REMARK   80  A    between atoms: _186  and  _189
REMARK   81  A    between atoms: _189  and  _190
REMARK   82  A    between atoms: _190  and  _191
REMARK   83  A    between atoms: _193  and  _195
REMARK   84  A    between atoms: _195  and  _196
REMARK   85  A    between atoms: _195  and  _198
REMARK   86  A    between atoms: _198  and  _199
REMARK   87  A    between atoms: _204  and  _205
REMARK   88  A    between atoms: _207  and  _209
REMARK   89  A    between atoms: _209  and  _210
REMARK   90  A    between atoms: _209  and  _212
REMARK   91  A    between atoms: _212  and  _213
REMARK   92  A    between atoms: _213  and  _214
REMARK   93  A    between atoms: _214  and  _215
REMARK   94  A    between atoms: _215  and  _216
REMARK   95  A    between atoms: _220  and  _222
REMARK   96  A    between atoms: _222  and  _223
REMARK   97  A    between atoms: _222  and  _225
REMARK   98  A    between atoms: _227  and  _229
REMARK   99  A    between atoms: _229  and  _230
REMARK  100  A    between atoms: _229  and  _232
REMARK  101  A    between atoms: _232  and  _233
REMARK  102  A    between atoms: _233  and  _234
REMARK  103  A    between atoms: _237  and  _239
REMARK  104  A    between atoms: _239  and  _240
REMARK  105  A    between atoms: _239  and  _242
REMARK  106  A    between atoms: _242  and  _243
REMARK  107  A    between atoms: _248  and  _250
REMARK  108  A    between atoms: _250  and  _251
REMARK  109  A    between atoms: _254  and  _256
REMARK  110  A    between atoms: _256  and  _257
REMARK  111  A    between atoms: _256  and  _259
REMARK  112  A    between atoms: _259  and  _260
REMARK  113  A    between atoms: _260  and  _261
REMARK  114  A    between atoms: _263  and  _265
REMARK  115  A    between atoms: _265  and  _266
REMARK  116  A    between atoms: _265  and  _268
REMARK  117  A    between atoms: _268  and  _269
REMARK  118  A    between atoms: _279  and  _281
REMARK  119  A    between atoms: _281  and  _282
REMARK  120  A    between atoms: _281  and  _284
REMARK  121  A    between atoms: _284  and  _285
REMARK  122  A    between atoms: _288  and  _290
REMARK  123  A    between atoms: _290  and  _291
REMARK  124  A    between atoms: _290  and  _293
REMARK  125  A    between atoms: _293  and  _294
REMARK  126  A    between atoms: _294  and  _295
REMARK  127  A    between atoms: _300  and  _302
REMARK  128  A    between atoms: _302  and  _303
REMARK  129  A    between atoms: _302  and  _305
REMARK  130  A    between atoms: _305  and  _306
REMARK  131  A    between atoms: _309  and  _311
REMARK  132  A    between atoms: _311  and  _312
REMARK  133  A    between atoms: _311  and  _314
REMARK  134  A    between atoms: _314  and  _315
REMARK  135  A    between atoms: _315  and  _316
REMARK  136  A    between atoms: _321  and  _323
REMARK  137  A    between atoms: _323  and  _324
REMARK  138  A    between atoms: _323  and  _326
REMARK  139  A    between atoms: _326  and  _327
REMARK  140  A    between atoms: _333  and  _335
REMARK  141  A    between atoms: _335  and  _336
REMARK  142  A    between atoms: _335  and  _338
REMARK  143  A    between atoms: _340  and  _342
REMARK  144  A    between atoms: _342  and  _343
REMARK  145  A    between atoms: _342  and  _345
REMARK  146  A    between atoms: _345  and  _346
REMARK  147  A    between atoms: _346  and  _347
REMARK  148  A    between atoms: _349  and  _351
REMARK  149  A    between atoms: _351  and  _352
REMARK  150  A    between atoms: _351  and  _354
REMARK  151  A    between atoms: _354  and  _355
REMARK  152  A    between atoms: _360  and  _362
REMARK  153  A    between atoms: _362  and  _363
REMARK  154  A    between atoms: _365  and  _367
REMARK  155  A    between atoms: _367  and  _368
REMARK  156  A    between atoms: _367  and  _370
REMARK  157  A    between atoms: _373  and  _375
REMARK  158  A    between atoms: _375  and  _376
REMARK  159  A    between atoms: _375  and  _378
REMARK  160  A    between atoms: _378  and  _379
REMARK  161  A    between atoms: _379  and  _380
REMARK  162  A    between atoms: _383  and  _385
REMARK  163  A    between atoms: _385  and  _386
REMARK  164  A    between atoms: _385  and  _388
REMARK  165  A    between atoms: _388  and  _389
REMARK  166  A    between atoms: _392  and  _394
REMARK  167  A    between atoms: _394  and  _395
REMARK  168  A    between atoms: _394  and  _397
REMARK  169  A    between atoms: _397  and  _398
REMARK  170  A    between atoms: _400  and  _402
REMARK  171  A    between atoms: _402  and  _403
REMARK  172  A    between atoms: _402  and  _405
REMARK  173  A    between atoms: _405  and  _406
REMARK  174  A    between atoms: _416  and  _418
REMARK  175  A    between atoms: _418  and  _419
REMARK  176  A    between atoms: _418  and  _421
REMARK  177  A    between atoms: _421  and  _422
REMARK  178  A    between atoms: _424  and  _426
REMARK  179  A    between atoms: _426  and  _427
REMARK  180  A    between atoms: _426  and  _429
REMARK  181  A    between atoms: _429  and  _430
REMARK  182  A    between atoms: _430  and  _431
REMARK  183  A    between atoms: _434  and  _436
REMARK  184  A    between atoms: _436  and  _437
REMARK  185  A    between atoms: _436  and  _439
REMARK  186  A    between atoms: _439  and  _440
REMARK  187  A    between atoms: _440  and  _441
REMARK  188  A    between atoms: _441  and  _442
REMARK                            x       y       z     vdW  Elec       q    Type
REMARK                         _______ _______ _______ _____ _____    ______ ____
ROOT
ATOM      1  O   HOH     1     -22.511 -29.386 -19.805  0.00  0.00    +0.000 OA
ENDROOT
TORSDOF 0
