REMARK  Name = ../refined-set-2016/4el0/4el0_pocket.pdb
REMARK  270 active torsions:
REMARK  status: ('A' for Active; 'I' for Inactive)
REMARK    1  A    between atoms: _1  and  _3
REMARK    2  A    between atoms: _3  and  _4
REMARK    3  A    between atoms: _3  and  _6
REMARK    4  A    between atoms: _6  and  _7
REMARK    5  A    between atoms: _12  and  _13
REMARK    6  A    between atoms: _15  and  _17
REMARK    7  A    between atoms: _17  and  _18
REMARK    8  A    between atoms: _17  and  _20
REMARK    9  A    between atoms: _20  and  _21
REMARK   10  A    between atoms: _21  and  _22
REMARK   11  A    between atoms: _25  and  _27
REMARK   12  A    between atoms: _27  and  _28
REMARK   13  A    between atoms: _27  and  _30
REMARK   14  A    between atoms: _30  and  _31
REMARK   15  A    between atoms: _36  and  _38
REMARK   16  A    between atoms: _38  and  _39
REMARK   17  A    between atoms: _41  and  _43
REMARK   18  A    between atoms: _43  and  _44
REMARK   19  A    between atoms: _46  and  _48
REMARK   20  A    between atoms: _48  and  _49
REMARK   21  A    between atoms: _48  and  _51
REMARK   22  A    between atoms: _51  and  _52
REMARK   23  A    between atoms: _55  and  _57
REMARK   24  A    between atoms: _57  and  _58
REMARK   25  A    between atoms: _60  and  _62
REMARK   26  A    between atoms: _62  and  _63
REMARK   27  A    between atoms: _62  and  _65
REMARK   28  A    between atoms: _66  and  _67
REMARK   29  A    between atoms: _67  and  _68
REMARK   30  A    between atoms: _77  and  _79
REMARK   31  A    between atoms: _79  and  _80
REMARK   32  A    between atoms: _79  and  _82
REMARK   33  A    between atoms: _82  and  _83
REMARK   34  A    between atoms: _86  and  _88
REMARK   35  A    between atoms: _88  and  _89
REMARK   36  A    between atoms: _92  and  _94
REMARK   37  A    between atoms: _94  and  _95
REMARK   38  A    between atoms: _94  and  _97
REMARK   39  A    between atoms: _97  and  _98
REMARK   40  A    between atoms: _104  and  _106
REMARK   41  A    between atoms: _106  and  _107
REMARK   42  A    between atoms: _106  and  _109
REMARK   43  A    between atoms: _109  and  _110
REMARK   44  A    between atoms: _115  and  _117
REMARK   45  A    between atoms: _117  and  _118
REMARK   46  A    between atoms: _117  and  _120
REMARK   47  A    between atoms: _120  and  _121
REMARK   48  A    between atoms: _124  and  _126
REMARK   49  A    between atoms: _126  and  _127
REMARK   50  A    between atoms: _126  and  _129
REMARK   51  A    between atoms: _129  and  _130
REMARK   52  A    between atoms: _135  and  _137
REMARK   53  A    between atoms: _137  and  _138
REMARK   54  A    between atoms: _137  and  _140
REMARK   55  A    between atoms: _140  and  _141
REMARK   56  A    between atoms: _147  and  _149
REMARK   57  A    between atoms: _149  and  _150
REMARK   58  A    between atoms: _149  and  _152
REMARK   59  A    between atoms: _152  and  _153
REMARK   60  A    between atoms: _159  and  _161
REMARK   61  A    between atoms: _161  and  _162
REMARK   62  A    between atoms: _161  and  _164
REMARK   63  A    between atoms: _164  and  _165
REMARK   64  A    between atoms: _165  and  _166
REMARK   65  A    between atoms: _169  and  _171
REMARK   66  A    between atoms: _171  and  _172
REMARK   67  A    between atoms: _171  and  _174
REMARK   68  A    between atoms: _174  and  _175
REMARK   69  A    between atoms: _175  and  _176
REMARK   70  A    between atoms: _176  and  _177
REMARK   71  A    between atoms: _186  and  _188
REMARK   72  A    between atoms: _188  and  _189
REMARK   73  A    between atoms: _188  and  _191
REMARK   74  A    between atoms: _191  and  _192
REMARK   75  A    between atoms: _192  and  _193
REMARK   76  A    between atoms: _196  and  _198
REMARK   77  A    between atoms: _198  and  _199
REMARK   78  A    between atoms: _198  and  _201
REMARK   79  A    between atoms: _201  and  _202
REMARK   80  A    between atoms: _207  and  _209
REMARK   81  A    between atoms: _209  and  _210
REMARK   82  A    between atoms: _209  and  _212
REMARK   83  A    between atoms: _212  and  _213
REMARK   84  A    between atoms: _216  and  _218
REMARK   85  A    between atoms: _218  and  _219
REMARK   86  A    between atoms: _218  and  _221
REMARK   87  A    between atoms: _221  and  _222
REMARK   88  A    between atoms: _225  and  _227
REMARK   89  A    between atoms: _227  and  _228
REMARK   90  A    between atoms: _227  and  _230
REMARK   91  A    between atoms: _230  and  _231
REMARK   92  A    between atoms: _236  and  _238
REMARK   93  A    between atoms: _238  and  _239
REMARK   94  A    between atoms: _238  and  _241
REMARK   95  A    between atoms: _241  and  _242
REMARK   96  A    between atoms: _247  and  _248
REMARK   97  A    between atoms: _250  and  _252
REMARK   98  A    between atoms: _252  and  _253
REMARK   99  A    between atoms: _252  and  _255
REMARK  100  A    between atoms: _255  and  _256
REMARK  101  A    between atoms: _259  and  _261
REMARK  102  A    between atoms: _261  and  _262
REMARK  103  A    between atoms: _261  and  _264
REMARK  104  A    between atoms: _264  and  _265
REMARK  105  A    between atoms: _270  and  _272
REMARK  106  A    between atoms: _272  and  _273
REMARK  107  A    between atoms: _272  and  _275
REMARK  108  A    between atoms: _275  and  _276
REMARK  109  A    between atoms: _281  and  _283
REMARK  110  A    between atoms: _283  and  _284
REMARK  111  A    between atoms: _283  and  _286
REMARK  112  A    between atoms: _286  and  _287
REMARK  113  A    between atoms: _290  and  _292
REMARK  114  A    between atoms: _292  and  _293
REMARK  115  A    between atoms: _292  and  _295
REMARK  116  A    between atoms: _298  and  _300
REMARK  117  A    between atoms: _300  and  _301
REMARK  118  A    between atoms: _300  and  _303
REMARK  119  A    between atoms: _303  and  _304
REMARK  120  A    between atoms: _307  and  _309
REMARK  121  A    between atoms: _309  and  _310
REMARK  122  A    between atoms: _309  and  _312
REMARK  123  A    between atoms: _312  and  _313
REMARK  124  A    between atoms: _313  and  _314
REMARK  125  A    between atoms: _317  and  _319
REMARK  126  A    between atoms: _319  and  _320
REMARK  127  A    between atoms: _323  and  _325
REMARK  128  A    between atoms: _325  and  _326
REMARK  129  A    between atoms: _325  and  _328
REMARK  130  A    between atoms: _328  and  _329
REMARK  131  A    between atoms: _332  and  _334
REMARK  132  A    between atoms: _334  and  _335
REMARK  133  A    between atoms: _334  and  _337
REMARK  134  A    between atoms: _337  and  _338
REMARK  135  A    between atoms: _338  and  _339
REMARK  136  A    between atoms: _342  and  _344
REMARK  137  A    between atoms: _344  and  _345
REMARK  138  A    between atoms: _344  and  _347
REMARK  139  A    between atoms: _347  and  _348
REMARK  140  A    between atoms: _348  and  _349
REMARK  141  A    between atoms: _349  and  _350
REMARK  142  A    between atoms: _359  and  _361
REMARK  143  A    between atoms: _361  and  _362
REMARK  144  A    between atoms: _361  and  _364
REMARK  145  A    between atoms: _364  and  _365
REMARK  146  A    between atoms: _375  and  _377
REMARK  147  A    between atoms: _377  and  _378
REMARK  148  A    between atoms: _377  and  _380
REMARK  149  A    between atoms: _380  and  _381
REMARK  150  A    between atoms: _381  and  _382
REMARK  151  A    between atoms: _384  and  _386
REMARK  152  A    between atoms: _386  and  _387
REMARK  153  A    between atoms: _390  and  _392
REMARK  154  A    between atoms: _392  and  _393
REMARK  155  A    between atoms: _392  and  _395
REMARK  156  A    between atoms: _395  and  _396
REMARK  157  A    between atoms: _401  and  _403
REMARK  158  A    between atoms: _403  and  _404
REMARK  159  A    between atoms: _406  and  _408
REMARK  160  A    between atoms: _408  and  _409
REMARK  161  A    between atoms: _408  and  _411
REMARK  162  A    between atoms: _414  and  _416
REMARK  163  A    between atoms: _416  and  _417
REMARK  164  A    between atoms: _420  and  _422
REMARK  165  A    between atoms: _422  and  _423
REMARK  166  A    between atoms: _422  and  _425
REMARK  167  A    between atoms: _425  and  _426
REMARK  168  A    between atoms: _431  and  _433
REMARK  169  A    between atoms: _433  and  _434
REMARK  170  A    between atoms: _433  and  _436
REMARK  171  A    between atoms: _436  and  _437
REMARK  172  A    between atoms: _437  and  _438
REMARK  173  A    between atoms: _438  and  _439
REMARK  174  A    between atoms: _439  and  _440
REMARK  175  A    between atoms: _444  and  _446
REMARK  176  A    between atoms: _446  and  _447
REMARK  177  A    between atoms: _446  and  _449
REMARK  178  A    between atoms: _449  and  _450
REMARK  179  A    between atoms: _453  and  _455
REMARK  180  A    between atoms: _455  and  _456
REMARK  181  A    between atoms: _455  and  _458
REMARK  182  A    between atoms: _458  and  _459
REMARK  183  A    between atoms: _464  and  _466
REMARK  184  A    between atoms: _466  and  _467
REMARK  185  A    between atoms: _469  and  _471
REMARK  186  A    between atoms: _471  and  _472
REMARK  187  A    between atoms: _471  and  _474
REMARK  188  A    between atoms: _474  and  _475
REMARK  189  A    between atoms: _475  and  _476
REMARK  190  A    between atoms: _476  and  _477
REMARK  191  A    between atoms: _477  and  _478
REMARK  192  A    between atoms: _482  and  _484
REMARK  193  A    between atoms: _484  and  _485
REMARK  194  A    between atoms: _484  and  _487
REMARK  195  A    between atoms: _487  and  _488
REMARK  196  A    between atoms: _488  and  _489
REMARK  197  A    between atoms: _489  and  _490
REMARK  198  A    between atoms: _499  and  _501
REMARK  199  A    between atoms: _501  and  _502
REMARK  200  A    between atoms: _501  and  _504
REMARK  201  A    between atoms: _504  and  _505
REMARK  202  A    between atoms: _510  and  _511
REMARK  203  A    between atoms: _513  and  _515
REMARK  204  A    between atoms: _515  and  _516
REMARK  205  A    between atoms: _515  and  _518
REMARK  206  A    between atoms: _518  and  _519
REMARK  207  A    between atoms: _519  and  _520
REMARK  208  A    between atoms: _520  and  _521
REMARK  209  A    between atoms: _521  and  _522
REMARK  210  A    between atoms: _526  and  _528
REMARK  211  A    between atoms: _528  and  _529
REMARK  212  A    between atoms: _528  and  _531
REMARK  213  A    between atoms: _531  and  _532
REMARK  214  A    between atoms: _534  and  _536
REMARK  215  A    between atoms: _536  and  _537
REMARK  216  A    between atoms: _536  and  _539
REMARK  217  A    between atoms: _539  and  _540
REMARK  218  A    between atoms: _543  and  _545
REMARK  219  A    between atoms: _545  and  _546
REMARK  220  A    between atoms: _545  and  _548
REMARK  221  A    between atoms: _548  and  _549
REMARK  222  A    between atoms: _549  and  _550
REMARK  223  A    between atoms: _553  and  _555
REMARK  224  A    between atoms: _555  and  _556
REMARK  225  A    between atoms: _559  and  _561
REMARK  226  A    between atoms: _561  and  _562
REMARK  227  A    between atoms: _561  and  _564
REMARK  228  A    between atoms: _564  and  _565
REMARK  229  A    between atoms: _567  and  _569
REMARK  230  A    between atoms: _569  and  _570
REMARK  231  A    between atoms: _572  and  _574
REMARK  232  A    between atoms: _574  and  _575
REMARK  233  A    between atoms: _574  and  _577
REMARK  234  A    between atoms: _577  and  _578
REMARK  235  A    between atoms: _581  and  _583
REMARK  236  A    between atoms: _583  and  _584
REMARK  237  A    between atoms: _586  and  _588
REMARK  238  A    between atoms: _588  and  _589
REMARK  239  A    between atoms: _588  and  _591
REMARK  240  A    between atoms: _591  and  _592
REMARK  241  A    between atoms: _597  and  _599
REMARK  242  A    between atoms: _599  and  _600
REMARK  243  A    between atoms: _599  and  _602
REMARK  244  A    between atoms: _602  and  _603
REMARK  245  A    between atoms: _603  and  _604
REMARK  246  A    between atoms: _611  and  _612
REMARK  247  A    between atoms: _612  and  _628
REMARK  248  A    between atoms: _613  and  _615
REMARK  249  A    between atoms: _615  and  _616
REMARK  250  A    between atoms: _616  and  _617
REMARK  251  A    between atoms: _621  and  _623
REMARK  252  A    between atoms: _623  and  _624
REMARK  253  A    between atoms: _623  and  _631
REMARK  254  A    between atoms: _624  and  _625
REMARK  255  A    between atoms: _625  and  _626
REMARK  256  A    between atoms: _626  and  _627
REMARK  257  A    between atoms: _627  and  _628
REMARK  258  A    between atoms: _633  and  _635
REMARK  259  A    between atoms: _635  and  _636
REMARK  260  A    between atoms: _635  and  _638
REMARK  261  A    between atoms: _638  and  _639
REMARK  262  A    between atoms: _642  and  _644
REMARK  263  A    between atoms: _644  and  _645
REMARK  264  A    between atoms: _647  and  _649
REMARK  265  A    between atoms: _649  and  _650
REMARK  266  A    between atoms: _653  and  _655
REMARK  267  A    between atoms: _655  and  _656
REMARK  268  A    between atoms: _655  and  _658
REMARK  269  A    between atoms: _658  and  _659
REMARK  270  A    between atoms: _664  and  _665
REMARK                            x       y       z     vdW  Elec       q    Type
REMARK                         _______ _______ _______ _____ _____    ______ ____
ROOT
ATOM      1  CG  TYR A   1      33.340  11.365  36.453  0.00  0.00    -0.020 A 
ATOM      2  CD2 TYR A   1      32.932  12.679  36.594  0.00  0.00    -0.001 A 
ATOM      3  CE2 TYR A   1      32.978  13.561  35.561  0.00  0.00    +0.036 A 
ATOM      4  CZ  TYR A   1      33.484  13.147  34.356  0.00  0.00    +0.134 A 
ATOM      5  CE1 TYR A   1      33.931  11.850  34.168  0.00  0.00    +0.036 A 
ATOM      6  CD1 TYR A   1      33.858  10.972  35.215  0.00  0.00    -0.001 A 
ENDROOT
BRANCH   4   7
ATOM      7  OH  TYR A   1      33.525  14.033  33.326  0.00  0.00    -0.506 OA
ATOM      8  HH  TYR A   1      33.912  13.592  32.529  0.00  0.00    +0.292 HD
ENDBRANCH   4   7
BRANCH   1   9
ATOM      9  CB  TYR A   1      33.310  10.412  37.621  0.00  0.00    +0.051 C 
BRANCH   9  10
ATOM     10  CA  TYR A   1      34.636  10.374  38.379  0.00  0.00    +0.137 C 
BRANCH  10  11
ATOM     11  N   TYR A   1      34.663   9.235  39.242  0.00  0.00    -0.239 NA
ATOM     12  H   TYR A   1      33.813   8.995  39.791  0.00  0.00    +0.142 HD
ENDBRANCH  10  11
BRANCH  10  13
ATOM     13  C   TYR A   1      34.884  11.636  39.245  0.00  0.00    +0.224 C 
ATOM     14  O   TYR A   1      33.990  12.111  39.962  0.00  0.00    -0.287 OA
ENDBRANCH  10  13
ENDBRANCH   9  10
ENDBRANCH   1   9
TORSDOF 5
REMARK  Name = ../refined-set-2016/4el0/4el0_pocket.pdb
REMARK  270 active torsions:
REMARK  status: ('A' for Active; 'I' for Inactive)
REMARK    1  A    between atoms: _1  and  _3
REMARK    2  A    between atoms: _3  and  _4
REMARK    3  A    between atoms: _3  and  _6
REMARK    4  A    between atoms: _6  and  _7
REMARK    5  A    between atoms: _12  and  _13
REMARK    6  A    between atoms: _15  and  _17
REMARK    7  A    between atoms: _17  and  _18
REMARK    8  A    between atoms: _17  and  _20
REMARK    9  A    between atoms: _20  and  _21
REMARK   10  A    between atoms: _21  and  _22
REMARK   11  A    between atoms: _25  and  _27
REMARK   12  A    between atoms: _27  and  _28
REMARK   13  A    between atoms: _27  and  _30
REMARK   14  A    between atoms: _30  and  _31
REMARK   15  A    between atoms: _36  and  _38
REMARK   16  A    between atoms: _38  and  _39
REMARK   17  A    between atoms: _41  and  _43
REMARK   18  A    between atoms: _43  and  _44
REMARK   19  A    between atoms: _46  and  _48
REMARK   20  A    between atoms: _48  and  _49
REMARK   21  A    between atoms: _48  and  _51
REMARK   22  A    between atoms: _51  and  _52
REMARK   23  A    between atoms: _55  and  _57
REMARK   24  A    between atoms: _57  and  _58
REMARK   25  A    between atoms: _60  and  _62
REMARK   26  A    between atoms: _62  and  _63
REMARK   27  A    between atoms: _62  and  _65
REMARK   28  A    between atoms: _66  and  _67
REMARK   29  A    between atoms: _67  and  _68
REMARK   30  A    between atoms: _77  and  _79
REMARK   31  A    between atoms: _79  and  _80
REMARK   32  A    between atoms: _79  and  _82
REMARK   33  A    between atoms: _82  and  _83
REMARK   34  A    between atoms: _86  and  _88
REMARK   35  A    between atoms: _88  and  _89
REMARK   36  A    between atoms: _92  and  _94
REMARK   37  A    between atoms: _94  and  _95
REMARK   38  A    between atoms: _94  and  _97
REMARK   39  A    between atoms: _97  and  _98
REMARK   40  A    between atoms: _104  and  _106
REMARK   41  A    between atoms: _106  and  _107
REMARK   42  A    between atoms: _106  and  _109
REMARK   43  A    between atoms: _109  and  _110
REMARK   44  A    between atoms: _115  and  _117
REMARK   45  A    between atoms: _117  and  _118
REMARK   46  A    between atoms: _117  and  _120
REMARK   47  A    between atoms: _120  and  _121
REMARK   48  A    between atoms: _124  and  _126
REMARK   49  A    between atoms: _126  and  _127
REMARK   50  A    between atoms: _126  and  _129
REMARK   51  A    between atoms: _129  and  _130
REMARK   52  A    between atoms: _135  and  _137
REMARK   53  A    between atoms: _137  and  _138
REMARK   54  A    between atoms: _137  and  _140
REMARK   55  A    between atoms: _140  and  _141
REMARK   56  A    between atoms: _147  and  _149
REMARK   57  A    between atoms: _149  and  _150
REMARK   58  A    between atoms: _149  and  _152
REMARK   59  A    between atoms: _152  and  _153
REMARK   60  A    between atoms: _159  and  _161
REMARK   61  A    between atoms: _161  and  _162
REMARK   62  A    between atoms: _161  and  _164
REMARK   63  A    between atoms: _164  and  _165
REMARK   64  A    between atoms: _165  and  _166
REMARK   65  A    between atoms: _169  and  _171
REMARK   66  A    between atoms: _171  and  _172
REMARK   67  A    between atoms: _171  and  _174
REMARK   68  A    between atoms: _174  and  _175
REMARK   69  A    between atoms: _175  and  _176
REMARK   70  A    between atoms: _176  and  _177
REMARK   71  A    between atoms: _186  and  _188
REMARK   72  A    between atoms: _188  and  _189
REMARK   73  A    between atoms: _188  and  _191
REMARK   74  A    between atoms: _191  and  _192
REMARK   75  A    between atoms: _192  and  _193
REMARK   76  A    between atoms: _196  and  _198
REMARK   77  A    between atoms: _198  and  _199
REMARK   78  A    between atoms: _198  and  _201
REMARK   79  A    between atoms: _201  and  _202
REMARK   80  A    between atoms: _207  and  _209
REMARK   81  A    between atoms: _209  and  _210
REMARK   82  A    between atoms: _209  and  _212
REMARK   83  A    between atoms: _212  and  _213
REMARK   84  A    between atoms: _216  and  _218
REMARK   85  A    between atoms: _218  and  _219
REMARK   86  A    between atoms: _218  and  _221
REMARK   87  A    between atoms: _221  and  _222
REMARK   88  A    between atoms: _225  and  _227
REMARK   89  A    between atoms: _227  and  _228
REMARK   90  A    between atoms: _227  and  _230
REMARK   91  A    between atoms: _230  and  _231
REMARK   92  A    between atoms: _236  and  _238
REMARK   93  A    between atoms: _238  and  _239
REMARK   94  A    between atoms: _238  and  _241
REMARK   95  A    between atoms: _241  and  _242
REMARK   96  A    between atoms: _247  and  _248
REMARK   97  A    between atoms: _250  and  _252
REMARK   98  A    between atoms: _252  and  _253
REMARK   99  A    between atoms: _252  and  _255
REMARK  100  A    between atoms: _255  and  _256
REMARK  101  A    between atoms: _259  and  _261
REMARK  102  A    between atoms: _261  and  _262
REMARK  103  A    between atoms: _261  and  _264
REMARK  104  A    between atoms: _264  and  _265
REMARK  105  A    between atoms: _270  and  _272
REMARK  106  A    between atoms: _272  and  _273
REMARK  107  A    between atoms: _272  and  _275
REMARK  108  A    between atoms: _275  and  _276
REMARK  109  A    between atoms: _281  and  _283
REMARK  110  A    between atoms: _283  and  _284
REMARK  111  A    between atoms: _283  and  _286
REMARK  112  A    between atoms: _286  and  _287
REMARK  113  A    between atoms: _290  and  _292
REMARK  114  A    between atoms: _292  and  _293
REMARK  115  A    between atoms: _292  and  _295
REMARK  116  A    between atoms: _298  and  _300
REMARK  117  A    between atoms: _300  and  _301
REMARK  118  A    between atoms: _300  and  _303
REMARK  119  A    between atoms: _303  and  _304
REMARK  120  A    between atoms: _307  and  _309
REMARK  121  A    between atoms: _309  and  _310
REMARK  122  A    between atoms: _309  and  _312
REMARK  123  A    between atoms: _312  and  _313
REMARK  124  A    between atoms: _313  and  _314
REMARK  125  A    between atoms: _317  and  _319
REMARK  126  A    between atoms: _319  and  _320
REMARK  127  A    between atoms: _323  and  _325
REMARK  128  A    between atoms: _325  and  _326
REMARK  129  A    between atoms: _325  and  _328
REMARK  130  A    between atoms: _328  and  _329
REMARK  131  A    between atoms: _332  and  _334
REMARK  132  A    between atoms: _334  and  _335
REMARK  133  A    between atoms: _334  and  _337
REMARK  134  A    between atoms: _337  and  _338
REMARK  135  A    between atoms: _338  and  _339
REMARK  136  A    between atoms: _342  and  _344
REMARK  137  A    between atoms: _344  and  _345
REMARK  138  A    between atoms: _344  and  _347
REMARK  139  A    between atoms: _347  and  _348
REMARK  140  A    between atoms: _348  and  _349
REMARK  141  A    between atoms: _349  and  _350
REMARK  142  A    between atoms: _359  and  _361
REMARK  143  A    between atoms: _361  and  _362
REMARK  144  A    between atoms: _361  and  _364
REMARK  145  A    between atoms: _364  and  _365
REMARK  146  A    between atoms: _375  and  _377
REMARK  147  A    between atoms: _377  and  _378
REMARK  148  A    between atoms: _377  and  _380
REMARK  149  A    between atoms: _380  and  _381
REMARK  150  A    between atoms: _381  and  _382
REMARK  151  A    between atoms: _384  and  _386
REMARK  152  A    between atoms: _386  and  _387
REMARK  153  A    between atoms: _390  and  _392
REMARK  154  A    between atoms: _392  and  _393
REMARK  155  A    between atoms: _392  and  _395
REMARK  156  A    between atoms: _395  and  _396
REMARK  157  A    between atoms: _401  and  _403
REMARK  158  A    between atoms: _403  and  _404
REMARK  159  A    between atoms: _406  and  _408
REMARK  160  A    between atoms: _408  and  _409
REMARK  161  A    between atoms: _408  and  _411
REMARK  162  A    between atoms: _414  and  _416
REMARK  163  A    between atoms: _416  and  _417
REMARK  164  A    between atoms: _420  and  _422
REMARK  165  A    between atoms: _422  and  _423
REMARK  166  A    between atoms: _422  and  _425
REMARK  167  A    between atoms: _425  and  _426
REMARK  168  A    between atoms: _431  and  _433
REMARK  169  A    between atoms: _433  and  _434
REMARK  170  A    between atoms: _433  and  _436
REMARK  171  A    between atoms: _436  and  _437
REMARK  172  A    between atoms: _437  and  _438
REMARK  173  A    between atoms: _438  and  _439
REMARK  174  A    between atoms: _439  and  _440
REMARK  175  A    between atoms: _444  and  _446
REMARK  176  A    between atoms: _446  and  _447
REMARK  177  A    between atoms: _446  and  _449
REMARK  178  A    between atoms: _449  and  _450
REMARK  179  A    between atoms: _453  and  _455
REMARK  180  A    between atoms: _455  and  _456
REMARK  181  A    between atoms: _455  and  _458
REMARK  182  A    between atoms: _458  and  _459
REMARK  183  A    between atoms: _464  and  _466
REMARK  184  A    between atoms: _466  and  _467
REMARK  185  A    between atoms: _469  and  _471
REMARK  186  A    between atoms: _471  and  _472
REMARK  187  A    between atoms: _471  and  _474
REMARK  188  A    between atoms: _474  and  _475
REMARK  189  A    between atoms: _475  and  _476
REMARK  190  A    between atoms: _476  and  _477
REMARK  191  A    between atoms: _477  and  _478
REMARK  192  A    between atoms: _482  and  _484
REMARK  193  A    between atoms: _484  and  _485
REMARK  194  A    between atoms: _484  and  _487
REMARK  195  A    between atoms: _487  and  _488
REMARK  196  A    between atoms: _488  and  _489
REMARK  197  A    between atoms: _489  and  _490
REMARK  198  A    between atoms: _499  and  _501
REMARK  199  A    between atoms: _501  and  _502
REMARK  200  A    between atoms: _501  and  _504
REMARK  201  A    between atoms: _504  and  _505
REMARK  202  A    between atoms: _510  and  _511
REMARK  203  A    between atoms: _513  and  _515
REMARK  204  A    between atoms: _515  and  _516
REMARK  205  A    between atoms: _515  and  _518
REMARK  206  A    between atoms: _518  and  _519
REMARK  207  A    between atoms: _519  and  _520
REMARK  208  A    between atoms: _520  and  _521
REMARK  209  A    between atoms: _521  and  _522
REMARK  210  A    between atoms: _526  and  _528
REMARK  211  A    between atoms: _528  and  _529
REMARK  212  A    between atoms: _528  and  _531
REMARK  213  A    between atoms: _531  and  _532
REMARK  214  A    between atoms: _534  and  _536
REMARK  215  A    between atoms: _536  and  _537
REMARK  216  A    between atoms: _536  and  _539
REMARK  217  A    between atoms: _539  and  _540
REMARK  218  A    between atoms: _543  and  _545
REMARK  219  A    between atoms: _545  and  _546
REMARK  220  A    between atoms: _545  and  _548
REMARK  221  A    between atoms: _548  and  _549
REMARK  222  A    between atoms: _549  and  _550
REMARK  223  A    between atoms: _553  and  _555
REMARK  224  A    between atoms: _555  and  _556
REMARK  225  A    between atoms: _559  and  _561
REMARK  226  A    between atoms: _561  and  _562
REMARK  227  A    between atoms: _561  and  _564
REMARK  228  A    between atoms: _564  and  _565
REMARK  229  A    between atoms: _567  and  _569
REMARK  230  A    between atoms: _569  and  _570
REMARK  231  A    between atoms: _572  and  _574
REMARK  232  A    between atoms: _574  and  _575
REMARK  233  A    between atoms: _574  and  _577
REMARK  234  A    between atoms: _577  and  _578
REMARK  235  A    between atoms: _581  and  _583
REMARK  236  A    between atoms: _583  and  _584
REMARK  237  A    between atoms: _586  and  _588
REMARK  238  A    between atoms: _588  and  _589
REMARK  239  A    between atoms: _588  and  _591
REMARK  240  A    between atoms: _591  and  _592
REMARK  241  A    between atoms: _597  and  _599
REMARK  242  A    between atoms: _599  and  _600
REMARK  243  A    between atoms: _599  and  _602
REMARK  244  A    between atoms: _602  and  _603
REMARK  245  A    between atoms: _603  and  _604
REMARK  246  A    between atoms: _611  and  _612
REMARK  247  A    between atoms: _612  and  _628
REMARK  248  A    between atoms: _613  and  _615
REMARK  249  A    between atoms: _615  and  _616
REMARK  250  A    between atoms: _616  and  _617
REMARK  251  A    between atoms: _621  and  _623
REMARK  252  A    between atoms: _623  and  _624
REMARK  253  A    between atoms: _623  and  _631
REMARK  254  A    between atoms: _624  and  _625
REMARK  255  A    between atoms: _625  and  _626
REMARK  256  A    between atoms: _626  and  _627
REMARK  257  A    between atoms: _627  and  _628
REMARK  258  A    between atoms: _633  and  _635
REMARK  259  A    between atoms: _635  and  _636
REMARK  260  A    between atoms: _635  and  _638
REMARK  261  A    between atoms: _638  and  _639
REMARK  262  A    between atoms: _642  and  _644
REMARK  263  A    between atoms: _644  and  _645
REMARK  264  A    between atoms: _647  and  _649
REMARK  265  A    between atoms: _649  and  _650
REMARK  266  A    between atoms: _653  and  _655
REMARK  267  A    between atoms: _655  and  _656
REMARK  268  A    between atoms: _655  and  _658
REMARK  269  A    between atoms: _658  and  _659
REMARK  270  A    between atoms: _664  and  _665
REMARK                            x       y       z     vdW  Elec       q    Type
REMARK                         _______ _______ _______ _____ _____    ______ ____
ROOT
ATOM      1  CA  GLU A   1      31.610  20.653  38.931  0.00  0.00    +0.134 C 
ENDROOT
BRANCH   1   2
ATOM      2  N   GLU A   1      32.912  20.132  39.321  0.00  0.00    -0.239 NA
ATOM      3  H   GLU A   1      33.334  19.334  38.804  0.00  0.00    +0.142 HD
ENDBRANCH   1   2
BRANCH   1   4
ATOM      4  C   GLU A   1      30.650  19.531  38.636  0.00  0.00    +0.224 C 
ATOM      5  O   GLU A   1      30.976  18.585  37.866  0.00  0.00    -0.287 OA
ENDBRANCH   1   4
BRANCH   1   6
ATOM      6  CB  GLU A   1      31.729  21.611  37.708  0.00  0.00    +0.037 C 
BRANCH   6   7
ATOM      7  CG  GLU A   1      32.603  22.822  37.954  0.00  0.00    +0.116 C 
BRANCH   7   8
ATOM      8  CD  GLU A   1      32.557  23.829  36.822  0.00  0.00    +0.365 C 
ATOM      9  OE2 GLU A   1      33.500  24.606  36.770  0.00  0.00    -0.246 OA
ATOM     10  OE1 GLU A   1      31.616  23.853  35.975  0.00  0.00    -0.246 OA
ENDBRANCH   7   8
ENDBRANCH   6   7
ENDBRANCH   1   6
TORSDOF 5
REMARK  Name = ../refined-set-2016/4el0/4el0_pocket.pdb
REMARK  270 active torsions:
REMARK  status: ('A' for Active; 'I' for Inactive)
REMARK    1  A    between atoms: _1  and  _3
REMARK    2  A    between atoms: _3  and  _4
REMARK    3  A    between atoms: _3  and  _6
REMARK    4  A    between atoms: _6  and  _7
REMARK    5  A    between atoms: _12  and  _13
REMARK    6  A    between atoms: _15  and  _17
REMARK    7  A    between atoms: _17  and  _18
REMARK    8  A    between atoms: _17  and  _20
REMARK    9  A    between atoms: _20  and  _21
REMARK   10  A    between atoms: _21  and  _22
REMARK   11  A    between atoms: _25  and  _27
REMARK   12  A    between atoms: _27  and  _28
REMARK   13  A    between atoms: _27  and  _30
REMARK   14  A    between atoms: _30  and  _31
REMARK   15  A    between atoms: _36  and  _38
REMARK   16  A    between atoms: _38  and  _39
REMARK   17  A    between atoms: _41  and  _43
REMARK   18  A    between atoms: _43  and  _44
REMARK   19  A    between atoms: _46  and  _48
REMARK   20  A    between atoms: _48  and  _49
REMARK   21  A    between atoms: _48  and  _51
REMARK   22  A    between atoms: _51  and  _52
REMARK   23  A    between atoms: _55  and  _57
REMARK   24  A    between atoms: _57  and  _58
REMARK   25  A    between atoms: _60  and  _62
REMARK   26  A    between atoms: _62  and  _63
REMARK   27  A    between atoms: _62  and  _65
REMARK   28  A    between atoms: _66  and  _67
REMARK   29  A    between atoms: _67  and  _68
REMARK   30  A    between atoms: _77  and  _79
REMARK   31  A    between atoms: _79  and  _80
REMARK   32  A    between atoms: _79  and  _82
REMARK   33  A    between atoms: _82  and  _83
REMARK   34  A    between atoms: _86  and  _88
REMARK   35  A    between atoms: _88  and  _89
REMARK   36  A    between atoms: _92  and  _94
REMARK   37  A    between atoms: _94  and  _95
REMARK   38  A    between atoms: _94  and  _97
REMARK   39  A    between atoms: _97  and  _98
REMARK   40  A    between atoms: _104  and  _106
REMARK   41  A    between atoms: _106  and  _107
REMARK   42  A    between atoms: _106  and  _109
REMARK   43  A    between atoms: _109  and  _110
REMARK   44  A    between atoms: _115  and  _117
REMARK   45  A    between atoms: _117  and  _118
REMARK   46  A    between atoms: _117  and  _120
REMARK   47  A    between atoms: _120  and  _121
REMARK   48  A    between atoms: _124  and  _126
REMARK   49  A    between atoms: _126  and  _127
REMARK   50  A    between atoms: _126  and  _129
REMARK   51  A    between atoms: _129  and  _130
REMARK   52  A    between atoms: _135  and  _137
REMARK   53  A    between atoms: _137  and  _138
REMARK   54  A    between atoms: _137  and  _140
REMARK   55  A    between atoms: _140  and  _141
REMARK   56  A    between atoms: _147  and  _149
REMARK   57  A    between atoms: _149  and  _150
REMARK   58  A    between atoms: _149  and  _152
REMARK   59  A    between atoms: _152  and  _153
REMARK   60  A    between atoms: _159  and  _161
REMARK   61  A    between atoms: _161  and  _162
REMARK   62  A    between atoms: _161  and  _164
REMARK   63  A    between atoms: _164  and  _165
REMARK   64  A    between atoms: _165  and  _166
REMARK   65  A    between atoms: _169  and  _171
REMARK   66  A    between atoms: _171  and  _172
REMARK   67  A    between atoms: _171  and  _174
REMARK   68  A    between atoms: _174  and  _175
REMARK   69  A    between atoms: _175  and  _176
REMARK   70  A    between atoms: _176  and  _177
REMARK   71  A    between atoms: _186  and  _188
REMARK   72  A    between atoms: _188  and  _189
REMARK   73  A    between atoms: _188  and  _191
REMARK   74  A    between atoms: _191  and  _192
REMARK   75  A    between atoms: _192  and  _193
REMARK   76  A    between atoms: _196  and  _198
REMARK   77  A    between atoms: _198  and  _199
REMARK   78  A    between atoms: _198  and  _201
REMARK   79  A    between atoms: _201  and  _202
REMARK   80  A    between atoms: _207  and  _209
REMARK   81  A    between atoms: _209  and  _210
REMARK   82  A    between atoms: _209  and  _212
REMARK   83  A    between atoms: _212  and  _213
REMARK   84  A    between atoms: _216  and  _218
REMARK   85  A    between atoms: _218  and  _219
REMARK   86  A    between atoms: _218  and  _221
REMARK   87  A    between atoms: _221  and  _222
REMARK   88  A    between atoms: _225  and  _227
REMARK   89  A    between atoms: _227  and  _228
REMARK   90  A    between atoms: _227  and  _230
REMARK   91  A    between atoms: _230  and  _231
REMARK   92  A    between atoms: _236  and  _238
REMARK   93  A    between atoms: _238  and  _239
REMARK   94  A    between atoms: _238  and  _241
REMARK   95  A    between atoms: _241  and  _242
REMARK   96  A    between atoms: _247  and  _248
REMARK   97  A    between atoms: _250  and  _252
REMARK   98  A    between atoms: _252  and  _253
REMARK   99  A    between atoms: _252  and  _255
REMARK  100  A    between atoms: _255  and  _256
REMARK  101  A    between atoms: _259  and  _261
REMARK  102  A    between atoms: _261  and  _262
REMARK  103  A    between atoms: _261  and  _264
REMARK  104  A    between atoms: _264  and  _265
REMARK  105  A    between atoms: _270  and  _272
REMARK  106  A    between atoms: _272  and  _273
REMARK  107  A    between atoms: _272  and  _275
REMARK  108  A    between atoms: _275  and  _276
REMARK  109  A    between atoms: _281  and  _283
REMARK  110  A    between atoms: _283  and  _284
REMARK  111  A    between atoms: _283  and  _286
REMARK  112  A    between atoms: _286  and  _287
REMARK  113  A    between atoms: _290  and  _292
REMARK  114  A    between atoms: _292  and  _293
REMARK  115  A    between atoms: _292  and  _295
REMARK  116  A    between atoms: _298  and  _300
REMARK  117  A    between atoms: _300  and  _301
REMARK  118  A    between atoms: _300  and  _303
REMARK  119  A    between atoms: _303  and  _304
REMARK  120  A    between atoms: _307  and  _309
REMARK  121  A    between atoms: _309  and  _310
REMARK  122  A    between atoms: _309  and  _312
REMARK  123  A    between atoms: _312  and  _313
REMARK  124  A    between atoms: _313  and  _314
REMARK  125  A    between atoms: _317  and  _319
REMARK  126  A    between atoms: _319  and  _320
REMARK  127  A    between atoms: _323  and  _325
REMARK  128  A    between atoms: _325  and  _326
REMARK  129  A    between atoms: _325  and  _328
REMARK  130  A    between atoms: _328  and  _329
REMARK  131  A    between atoms: _332  and  _334
REMARK  132  A    between atoms: _334  and  _335
REMARK  133  A    between atoms: _334  and  _337
REMARK  134  A    between atoms: _337  and  _338
REMARK  135  A    between atoms: _338  and  _339
REMARK  136  A    between atoms: _342  and  _344
REMARK  137  A    between atoms: _344  and  _345
REMARK  138  A    between atoms: _344  and  _347
REMARK  139  A    between atoms: _347  and  _348
REMARK  140  A    between atoms: _348  and  _349
REMARK  141  A    between atoms: _349  and  _350
REMARK  142  A    between atoms: _359  and  _361
REMARK  143  A    between atoms: _361  and  _362
REMARK  144  A    between atoms: _361  and  _364
REMARK  145  A    between atoms: _364  and  _365
REMARK  146  A    between atoms: _375  and  _377
REMARK  147  A    between atoms: _377  and  _378
REMARK  148  A    between atoms: _377  and  _380
REMARK  149  A    between atoms: _380  and  _381
REMARK  150  A    between atoms: _381  and  _382
REMARK  151  A    between atoms: _384  and  _386
REMARK  152  A    between atoms: _386  and  _387
REMARK  153  A    between atoms: _390  and  _392
REMARK  154  A    between atoms: _392  and  _393
REMARK  155  A    between atoms: _392  and  _395
REMARK  156  A    between atoms: _395  and  _396
REMARK  157  A    between atoms: _401  and  _403
REMARK  158  A    between atoms: _403  and  _404
REMARK  159  A    between atoms: _406  and  _408
REMARK  160  A    between atoms: _408  and  _409
REMARK  161  A    between atoms: _408  and  _411
REMARK  162  A    between atoms: _414  and  _416
REMARK  163  A    between atoms: _416  and  _417
REMARK  164  A    between atoms: _420  and  _422
REMARK  165  A    between atoms: _422  and  _423
REMARK  166  A    between atoms: _422  and  _425
REMARK  167  A    between atoms: _425  and  _426
REMARK  168  A    between atoms: _431  and  _433
REMARK  169  A    between atoms: _433  and  _434
REMARK  170  A    between atoms: _433  and  _436
REMARK  171  A    between atoms: _436  and  _437
REMARK  172  A    between atoms: _437  and  _438
REMARK  173  A    between atoms: _438  and  _439
REMARK  174  A    between atoms: _439  and  _440
REMARK  175  A    between atoms: _444  and  _446
REMARK  176  A    between atoms: _446  and  _447
REMARK  177  A    between atoms: _446  and  _449
REMARK  178  A    between atoms: _449  and  _450
REMARK  179  A    between atoms: _453  and  _455
REMARK  180  A    between atoms: _455  and  _456
REMARK  181  A    between atoms: _455  and  _458
REMARK  182  A    between atoms: _458  and  _459
REMARK  183  A    between atoms: _464  and  _466
REMARK  184  A    between atoms: _466  and  _467
REMARK  185  A    between atoms: _469  and  _471
REMARK  186  A    between atoms: _471  and  _472
REMARK  187  A    between atoms: _471  and  _474
REMARK  188  A    between atoms: _474  and  _475
REMARK  189  A    between atoms: _475  and  _476
REMARK  190  A    between atoms: _476  and  _477
REMARK  191  A    between atoms: _477  and  _478
REMARK  192  A    between atoms: _482  and  _484
REMARK  193  A    between atoms: _484  and  _485
REMARK  194  A    between atoms: _484  and  _487
REMARK  195  A    between atoms: _487  and  _488
REMARK  196  A    between atoms: _488  and  _489
REMARK  197  A    between atoms: _489  and  _490
REMARK  198  A    between atoms: _499  and  _501
REMARK  199  A    between atoms: _501  and  _502
REMARK  200  A    between atoms: _501  and  _504
REMARK  201  A    between atoms: _504  and  _505
REMARK  202  A    between atoms: _510  and  _511
REMARK  203  A    between atoms: _513  and  _515
REMARK  204  A    between atoms: _515  and  _516
REMARK  205  A    between atoms: _515  and  _518
REMARK  206  A    between atoms: _518  and  _519
REMARK  207  A    between atoms: _519  and  _520
REMARK  208  A    between atoms: _520  and  _521
REMARK  209  A    between atoms: _521  and  _522
REMARK  210  A    between atoms: _526  and  _528
REMARK  211  A    between atoms: _528  and  _529
REMARK  212  A    between atoms: _528  and  _531
REMARK  213  A    between atoms: _531  and  _532
REMARK  214  A    between atoms: _534  and  _536
REMARK  215  A    between atoms: _536  and  _537
REMARK  216  A    between atoms: _536  and  _539
REMARK  217  A    between atoms: _539  and  _540
REMARK  218  A    between atoms: _543  and  _545
REMARK  219  A    between atoms: _545  and  _546
REMARK  220  A    between atoms: _545  and  _548
REMARK  221  A    between atoms: _548  and  _549
REMARK  222  A    between atoms: _549  and  _550
REMARK  223  A    between atoms: _553  and  _555
REMARK  224  A    between atoms: _555  and  _556
REMARK  225  A    between atoms: _559  and  _561
REMARK  226  A    between atoms: _561  and  _562
REMARK  227  A    between atoms: _561  and  _564
REMARK  228  A    between atoms: _564  and  _565
REMARK  229  A    between atoms: _567  and  _569
REMARK  230  A    between atoms: _569  and  _570
REMARK  231  A    between atoms: _572  and  _574
REMARK  232  A    between atoms: _574  and  _575
REMARK  233  A    between atoms: _574  and  _577
REMARK  234  A    between atoms: _577  and  _578
REMARK  235  A    between atoms: _581  and  _583
REMARK  236  A    between atoms: _583  and  _584
REMARK  237  A    between atoms: _586  and  _588
REMARK  238  A    between atoms: _588  and  _589
REMARK  239  A    between atoms: _588  and  _591
REMARK  240  A    between atoms: _591  and  _592
REMARK  241  A    between atoms: _597  and  _599
REMARK  242  A    between atoms: _599  and  _600
REMARK  243  A    between atoms: _599  and  _602
REMARK  244  A    between atoms: _602  and  _603
REMARK  245  A    between atoms: _603  and  _604
REMARK  246  A    between atoms: _611  and  _612
REMARK  247  A    between atoms: _612  and  _628
REMARK  248  A    between atoms: _613  and  _615
REMARK  249  A    between atoms: _615  and  _616
REMARK  250  A    between atoms: _616  and  _617
REMARK  251  A    between atoms: _621  and  _623
REMARK  252  A    between atoms: _623  and  _624
REMARK  253  A    between atoms: _623  and  _631
REMARK  254  A    between atoms: _624  and  _625
REMARK  255  A    between atoms: _625  and  _626
REMARK  256  A    between atoms: _626  and  _627
REMARK  257  A    between atoms: _627  and  _628
REMARK  258  A    between atoms: _633  and  _635
REMARK  259  A    between atoms: _635  and  _636
REMARK  260  A    between atoms: _635  and  _638
REMARK  261  A    between atoms: _638  and  _639
REMARK  262  A    between atoms: _642  and  _644
REMARK  263  A    between atoms: _644  and  _645
REMARK  264  A    between atoms: _647  and  _649
REMARK  265  A    between atoms: _649  and  _650
REMARK  266  A    between atoms: _653  and  _655
REMARK  267  A    between atoms: _655  and  _656
REMARK  268  A    between atoms: _655  and  _658
REMARK  269  A    between atoms: _658  and  _659
REMARK  270  A    between atoms: _664  and  _665
REMARK                            x       y       z     vdW  Elec       q    Type
REMARK                         _______ _______ _______ _____ _____    ______ ____
ROOT
ATOM      1  C   GLY A   5      28.555  19.778  34.448  0.00  0.00    +0.243 C 
ATOM      2  O   GLY A   5      28.228  18.845  35.153  0.00  0.00    -0.273 OA
ATOM      3  N   ARG A   6      27.862  20.181  33.361  0.00  0.00    -0.294 N 
ATOM      4  H   ARG A   6      28.190  21.013  32.831  0.00  0.00    +0.150 HD
ENDROOT
BRANCH   3   5
ATOM      5  CA  ARG A   6      26.645  19.466  32.905  0.00  0.00    +0.171 C 
BRANCH   5   6
ATOM      6  C   ARG A   6      27.046  18.118  32.307  0.00  0.00    +0.245 C 
ATOM      7  O   ARG A   6      26.304  17.157  32.461  0.00  0.00    -0.273 OA
ATOM      8  N   LEU A   7      28.235  18.019  31.709  0.00  0.00    -0.297 N 
ATOM      9  H   LEU A   7      28.847  18.855  31.623  0.00  0.00    +0.150 HD
BRANCH   8  10
ATOM     10  CA  LEU A   7      28.673  16.730  31.176  0.00  0.00    +0.149 C 
BRANCH  10  11
ATOM     11  C   LEU A   7      28.814  15.704  32.307  0.00  0.00    +0.241 C 
ATOM     12  N   ALA A   8      29.339  16.195  33.426  0.00  0.00    -0.298 N 
ATOM     13  H   ALA A   8      29.627  17.194  33.450  0.00  0.00    +0.150 HD
ATOM     14  O   LEU A   7      28.396  14.511  32.203  0.00  0.00    -0.273 OA
BRANCH  12  15
ATOM     15  CA  ALA A   8      29.522  15.386  34.608  0.00  0.00    +0.137 C 
ATOM     16  CB  ALA A   8      30.257  16.180  35.701  0.00  0.00    +0.030 C 
BRANCH  15  17
ATOM     17  C   ALA A   8      28.152  14.851  35.076  0.00  0.00    +0.227 C 
ATOM     18  O   ALA A   8      28.043  13.687  35.361  0.00  0.00    -0.286 OA
ENDBRANCH  15  17
ENDBRANCH  12  15
ENDBRANCH  10  11
BRANCH  10  19
ATOM     19  CB  LEU A   7      29.974  16.882  30.425  0.00  0.00    +0.029 C 
BRANCH  19  20
ATOM     20  CG  LEU A   7      30.425  15.625  29.644  0.00  0.00    +0.002 C 
ATOM     21  CD2 LEU A   7      31.919  15.678  29.425  0.00  0.00    +0.000 C 
ATOM     22  CD1 LEU A   7      29.724  15.440  28.245  0.00  0.00    +0.000 C 
ENDBRANCH  19  20
ENDBRANCH  10  19
ENDBRANCH   8  10
ENDBRANCH   5   6
BRANCH   5  23
ATOM     23  CB  ARG A   6      25.818  20.300  31.912  0.00  0.00    +0.001 C 
ATOM     24  CG  ARG A   6      24.393  19.856  31.553  0.00  0.00    +0.014 C 
BRANCH  24  25
ATOM     25  CD  ARG A   6      23.898  18.448  31.926  0.00  0.00    +0.200 C 
BRANCH  25  26
ATOM     26  NE  ARG A   6      23.054  18.473  33.081  0.00  0.00    -0.261 N 
ATOM     27  HE  ARG A   6      23.013  19.369  33.607  0.00  0.00    +0.259 HD
ATOM     28  CZ  ARG A   6      22.316  17.472  33.554  0.00  0.00    +0.342 C 
ATOM     29  NH2 ARG A   6      21.623  17.706  34.655  0.00  0.00    -0.292 N 
ATOM     30 HH21 ARG A   6      21.671  18.640  35.111  0.00  0.00    +0.255 HD
ATOM     31 HH22 ARG A   6      21.030  16.957  35.065  0.00  0.00    +0.255 HD
ATOM     32  NH1 ARG A   6      22.212  16.281  32.971  0.00  0.00    -0.292 N 
ATOM     33 HH11 ARG A   6      21.616  15.544  33.398  0.00  0.00    +0.255 HD
ATOM     34 HH12 ARG A   6      22.727  16.087  32.089  0.00  0.00    +0.255 HD
ENDBRANCH  25  26
ENDBRANCH  24  25
ENDBRANCH   5  23
ENDBRANCH   3   5
BRANCH   1  35
ATOM     35  CA  GLY A   5      29.781  20.590  34.809  0.00  0.00    +0.176 C 
BRANCH  35  37
ATOM     36  C   LEU A   4      31.139  20.161  32.872  0.00  0.00    +0.241 C 
ATOM     37  N   GLY A   5      30.486  21.053  33.624  0.00  0.00    -0.295 N 
ATOM     38  H   GLY A   5      30.482  22.061  33.366  0.00  0.00    +0.150 HD
ATOM     39  O   LEU A   4      31.106  18.934  33.114  0.00  0.00    -0.273 OA
BRANCH  36  40
ATOM     40  CA  LEU A   4      31.881  20.704  31.619  0.00  0.00    +0.149 C 
BRANCH  40  42
ATOM     41  C   GLY A   3      29.890  21.357  30.322  0.00  0.00    +0.243 C 
ATOM     42  N   LEU A   4      31.039  21.665  30.906  0.00  0.00    -0.297 N 
ATOM     43  H   LEU A   4      31.363  22.652  30.854  0.00  0.00    +0.150 HD
ATOM     44  O   GLY A   3      29.372  20.261  30.413  0.00  0.00    -0.273 OA
BRANCH  41  45
ATOM     45  CA  GLY A   3      29.237  22.476  29.552  0.00  0.00    +0.176 C 
BRANCH  45  48
ATOM     46  C   GLY A   2      28.483  23.816  31.465  0.00  0.00    +0.243 C 
ATOM     47  O   GLY A   2      28.118  22.815  32.159  0.00  0.00    -0.273 OA
ATOM     48  N   GLY A   3      29.219  23.718  30.348  0.00  0.00    -0.295 N 
ATOM     49  H   GLY A   3      29.787  24.532  30.038  0.00  0.00    +0.150 HD
BRANCH  46  50
ATOM     50  CA  GLY A   2      28.177  25.222  31.936  0.00  0.00    +0.176 C 
BRANCH  50  53
ATOM     51  C   ASN A   1      28.602  26.618  33.911  0.00  0.00    +0.239 C 
ATOM     52  O   ASN A   1      27.885  27.508  33.507  0.00  0.00    -0.274 OA
ATOM     53  N   GLY A   2      28.808  25.500  33.232  0.00  0.00    -0.296 N 
ATOM     54  H   GLY A   2      29.447  24.785  33.636  0.00  0.00    +0.150 HD
BRANCH  51  55
ATOM     55  CA  ASN A   1      29.354  26.796  35.225  0.00  0.00    +0.154 C 
BRANCH  55  56
ATOM     56  N   ASN A   1      29.438  25.564  36.028  0.00  0.00    -0.238 NA
ATOM     57  H   ASN A   1      30.199  24.882  35.837  0.00  0.00    +0.142 HD
ENDBRANCH  55  56
BRANCH  55  58
ATOM     58  CB  ASN A   1      30.733  27.363  34.906  0.00  0.00    +0.111 C 
BRANCH  58  59
ATOM     59  CG  ASN A   1      31.357  28.055  36.081  0.00  0.00    +0.221 C 
ATOM     60  ND2 ASN A   1      32.333  27.396  36.676  0.00  0.00    -0.329 N 
ATOM     61 HD21 ASN A   1      32.808  27.807  37.505  0.00  0.00    +0.145 HD
ATOM     62 HD22 ASN A   1      32.627  26.466  36.316  0.00  0.00    +0.145 HD
ATOM     63  OD1 ASN A   1      30.967  29.163  36.466  0.00  0.00    -0.275 OA
ENDBRANCH  58  59
ENDBRANCH  55  58
ENDBRANCH  51  55
ENDBRANCH  50  53
ENDBRANCH  46  50
ENDBRANCH  45  48
ENDBRANCH  41  45
ENDBRANCH  40  42
BRANCH  40  64
ATOM     64  CB  LEU A   4      33.246  21.383  31.959  0.00  0.00    +0.029 C 
BRANCH  64  65
ATOM     65  CG  LEU A   4      34.293  20.664  32.822  0.00  0.00    +0.002 C 
ATOM     66  CD2 LEU A   4      33.819  20.894  34.206  0.00  0.00    +0.000 C 
ATOM     67  CD1 LEU A   4      35.716  21.237  32.742  0.00  0.00    +0.000 C 
ENDBRANCH  64  65
ENDBRANCH  40  64
ENDBRANCH  36  40
ENDBRANCH  35  37
ENDBRANCH   1  35
TORSDOF 25
REMARK  Name = ../refined-set-2016/4el0/4el0_pocket.pdb
REMARK  270 active torsions:
REMARK  status: ('A' for Active; 'I' for Inactive)
REMARK    1  A    between atoms: _1  and  _3
REMARK    2  A    between atoms: _3  and  _4
REMARK    3  A    between atoms: _3  and  _6
REMARK    4  A    between atoms: _6  and  _7
REMARK    5  A    between atoms: _12  and  _13
REMARK    6  A    between atoms: _15  and  _17
REMARK    7  A    between atoms: _17  and  _18
REMARK    8  A    between atoms: _17  and  _20
REMARK    9  A    between atoms: _20  and  _21
REMARK   10  A    between atoms: _21  and  _22
REMARK   11  A    between atoms: _25  and  _27
REMARK   12  A    between atoms: _27  and  _28
REMARK   13  A    between atoms: _27  and  _30
REMARK   14  A    between atoms: _30  and  _31
REMARK   15  A    between atoms: _36  and  _38
REMARK   16  A    between atoms: _38  and  _39
REMARK   17  A    between atoms: _41  and  _43
REMARK   18  A    between atoms: _43  and  _44
REMARK   19  A    between atoms: _46  and  _48
REMARK   20  A    between atoms: _48  and  _49
REMARK   21  A    between atoms: _48  and  _51
REMARK   22  A    between atoms: _51  and  _52
REMARK   23  A    between atoms: _55  and  _57
REMARK   24  A    between atoms: _57  and  _58
REMARK   25  A    between atoms: _60  and  _62
REMARK   26  A    between atoms: _62  and  _63
REMARK   27  A    between atoms: _62  and  _65
REMARK   28  A    between atoms: _66  and  _67
REMARK   29  A    between atoms: _67  and  _68
REMARK   30  A    between atoms: _77  and  _79
REMARK   31  A    between atoms: _79  and  _80
REMARK   32  A    between atoms: _79  and  _82
REMARK   33  A    between atoms: _82  and  _83
REMARK   34  A    between atoms: _86  and  _88
REMARK   35  A    between atoms: _88  and  _89
REMARK   36  A    between atoms: _92  and  _94
REMARK   37  A    between atoms: _94  and  _95
REMARK   38  A    between atoms: _94  and  _97
REMARK   39  A    between atoms: _97  and  _98
REMARK   40  A    between atoms: _104  and  _106
REMARK   41  A    between atoms: _106  and  _107
REMARK   42  A    between atoms: _106  and  _109
REMARK   43  A    between atoms: _109  and  _110
REMARK   44  A    between atoms: _115  and  _117
REMARK   45  A    between atoms: _117  and  _118
REMARK   46  A    between atoms: _117  and  _120
REMARK   47  A    between atoms: _120  and  _121
REMARK   48  A    between atoms: _124  and  _126
REMARK   49  A    between atoms: _126  and  _127
REMARK   50  A    between atoms: _126  and  _129
REMARK   51  A    between atoms: _129  and  _130
REMARK   52  A    between atoms: _135  and  _137
REMARK   53  A    between atoms: _137  and  _138
REMARK   54  A    between atoms: _137  and  _140
REMARK   55  A    between atoms: _140  and  _141
REMARK   56  A    between atoms: _147  and  _149
REMARK   57  A    between atoms: _149  and  _150
REMARK   58  A    between atoms: _149  and  _152
REMARK   59  A    between atoms: _152  and  _153
REMARK   60  A    between atoms: _159  and  _161
REMARK   61  A    between atoms: _161  and  _162
REMARK   62  A    between atoms: _161  and  _164
REMARK   63  A    between atoms: _164  and  _165
REMARK   64  A    between atoms: _165  and  _166
REMARK   65  A    between atoms: _169  and  _171
REMARK   66  A    between atoms: _171  and  _172
REMARK   67  A    between atoms: _171  and  _174
REMARK   68  A    between atoms: _174  and  _175
REMARK   69  A    between atoms: _175  and  _176
REMARK   70  A    between atoms: _176  and  _177
REMARK   71  A    between atoms: _186  and  _188
REMARK   72  A    between atoms: _188  and  _189
REMARK   73  A    between atoms: _188  and  _191
REMARK   74  A    between atoms: _191  and  _192
REMARK   75  A    between atoms: _192  and  _193
REMARK   76  A    between atoms: _196  and  _198
REMARK   77  A    between atoms: _198  and  _199
REMARK   78  A    between atoms: _198  and  _201
REMARK   79  A    between atoms: _201  and  _202
REMARK   80  A    between atoms: _207  and  _209
REMARK   81  A    between atoms: _209  and  _210
REMARK   82  A    between atoms: _209  and  _212
REMARK   83  A    between atoms: _212  and  _213
REMARK   84  A    between atoms: _216  and  _218
REMARK   85  A    between atoms: _218  and  _219
REMARK   86  A    between atoms: _218  and  _221
REMARK   87  A    between atoms: _221  and  _222
REMARK   88  A    between atoms: _225  and  _227
REMARK   89  A    between atoms: _227  and  _228
REMARK   90  A    between atoms: _227  and  _230
REMARK   91  A    between atoms: _230  and  _231
REMARK   92  A    between atoms: _236  and  _238
REMARK   93  A    between atoms: _238  and  _239
REMARK   94  A    between atoms: _238  and  _241
REMARK   95  A    between atoms: _241  and  _242
REMARK   96  A    between atoms: _247  and  _248
REMARK   97  A    between atoms: _250  and  _252
REMARK   98  A    between atoms: _252  and  _253
REMARK   99  A    between atoms: _252  and  _255
REMARK  100  A    between atoms: _255  and  _256
REMARK  101  A    between atoms: _259  and  _261
REMARK  102  A    between atoms: _261  and  _262
REMARK  103  A    between atoms: _261  and  _264
REMARK  104  A    between atoms: _264  and  _265
REMARK  105  A    between atoms: _270  and  _272
REMARK  106  A    between atoms: _272  and  _273
REMARK  107  A    between atoms: _272  and  _275
REMARK  108  A    between atoms: _275  and  _276
REMARK  109  A    between atoms: _281  and  _283
REMARK  110  A    between atoms: _283  and  _284
REMARK  111  A    between atoms: _283  and  _286
REMARK  112  A    between atoms: _286  and  _287
REMARK  113  A    between atoms: _290  and  _292
REMARK  114  A    between atoms: _292  and  _293
REMARK  115  A    between atoms: _292  and  _295
REMARK  116  A    between atoms: _298  and  _300
REMARK  117  A    between atoms: _300  and  _301
REMARK  118  A    between atoms: _300  and  _303
REMARK  119  A    between atoms: _303  and  _304
REMARK  120  A    between atoms: _307  and  _309
REMARK  121  A    between atoms: _309  and  _310
REMARK  122  A    between atoms: _309  and  _312
REMARK  123  A    between atoms: _312  and  _313
REMARK  124  A    between atoms: _313  and  _314
REMARK  125  A    between atoms: _317  and  _319
REMARK  126  A    between atoms: _319  and  _320
REMARK  127  A    between atoms: _323  and  _325
REMARK  128  A    between atoms: _325  and  _326
REMARK  129  A    between atoms: _325  and  _328
REMARK  130  A    between atoms: _328  and  _329
REMARK  131  A    between atoms: _332  and  _334
REMARK  132  A    between atoms: _334  and  _335
REMARK  133  A    between atoms: _334  and  _337
REMARK  134  A    between atoms: _337  and  _338
REMARK  135  A    between atoms: _338  and  _339
REMARK  136  A    between atoms: _342  and  _344
REMARK  137  A    between atoms: _344  and  _345
REMARK  138  A    between atoms: _344  and  _347
REMARK  139  A    between atoms: _347  and  _348
REMARK  140  A    between atoms: _348  and  _349
REMARK  141  A    between atoms: _349  and  _350
REMARK  142  A    between atoms: _359  and  _361
REMARK  143  A    between atoms: _361  and  _362
REMARK  144  A    between atoms: _361  and  _364
REMARK  145  A    between atoms: _364  and  _365
REMARK  146  A    between atoms: _375  and  _377
REMARK  147  A    between atoms: _377  and  _378
REMARK  148  A    between atoms: _377  and  _380
REMARK  149  A    between atoms: _380  and  _381
REMARK  150  A    between atoms: _381  and  _382
REMARK  151  A    between atoms: _384  and  _386
REMARK  152  A    between atoms: _386  and  _387
REMARK  153  A    between atoms: _390  and  _392
REMARK  154  A    between atoms: _392  and  _393
REMARK  155  A    between atoms: _392  and  _395
REMARK  156  A    between atoms: _395  and  _396
REMARK  157  A    between atoms: _401  and  _403
REMARK  158  A    between atoms: _403  and  _404
REMARK  159  A    between atoms: _406  and  _408
REMARK  160  A    between atoms: _408  and  _409
REMARK  161  A    between atoms: _408  and  _411
REMARK  162  A    between atoms: _414  and  _416
REMARK  163  A    between atoms: _416  and  _417
REMARK  164  A    between atoms: _420  and  _422
REMARK  165  A    between atoms: _422  and  _423
REMARK  166  A    between atoms: _422  and  _425
REMARK  167  A    between atoms: _425  and  _426
REMARK  168  A    between atoms: _431  and  _433
REMARK  169  A    between atoms: _433  and  _434
REMARK  170  A    between atoms: _433  and  _436
REMARK  171  A    between atoms: _436  and  _437
REMARK  172  A    between atoms: _437  and  _438
REMARK  173  A    between atoms: _438  and  _439
REMARK  174  A    between atoms: _439  and  _440
REMARK  175  A    between atoms: _444  and  _446
REMARK  176  A    between atoms: _446  and  _447
REMARK  177  A    between atoms: _446  and  _449
REMARK  178  A    between atoms: _449  and  _450
REMARK  179  A    between atoms: _453  and  _455
REMARK  180  A    between atoms: _455  and  _456
REMARK  181  A    between atoms: _455  and  _458
REMARK  182  A    between atoms: _458  and  _459
REMARK  183  A    between atoms: _464  and  _466
REMARK  184  A    between atoms: _466  and  _467
REMARK  185  A    between atoms: _469  and  _471
REMARK  186  A    between atoms: _471  and  _472
REMARK  187  A    between atoms: _471  and  _474
REMARK  188  A    between atoms: _474  and  _475
REMARK  189  A    between atoms: _475  and  _476
REMARK  190  A    between atoms: _476  and  _477
REMARK  191  A    between atoms: _477  and  _478
REMARK  192  A    between atoms: _482  and  _484
REMARK  193  A    between atoms: _484  and  _485
REMARK  194  A    between atoms: _484  and  _487
REMARK  195  A    between atoms: _487  and  _488
REMARK  196  A    between atoms: _488  and  _489
REMARK  197  A    between atoms: _489  and  _490
REMARK  198  A    between atoms: _499  and  _501
REMARK  199  A    between atoms: _501  and  _502
REMARK  200  A    between atoms: _501  and  _504
REMARK  201  A    between atoms: _504  and  _505
REMARK  202  A    between atoms: _510  and  _511
REMARK  203  A    between atoms: _513  and  _515
REMARK  204  A    between atoms: _515  and  _516
REMARK  205  A    between atoms: _515  and  _518
REMARK  206  A    between atoms: _518  and  _519
REMARK  207  A    between atoms: _519  and  _520
REMARK  208  A    between atoms: _520  and  _521
REMARK  209  A    between atoms: _521  and  _522
REMARK  210  A    between atoms: _526  and  _528
REMARK  211  A    between atoms: _528  and  _529
REMARK  212  A    between atoms: _528  and  _531
REMARK  213  A    between atoms: _531  and  _532
REMARK  214  A    between atoms: _534  and  _536
REMARK  215  A    between atoms: _536  and  _537
REMARK  216  A    between atoms: _536  and  _539
REMARK  217  A    between atoms: _539  and  _540
REMARK  218  A    between atoms: _543  and  _545
REMARK  219  A    between atoms: _545  and  _546
REMARK  220  A    between atoms: _545  and  _548
REMARK  221  A    between atoms: _548  and  _549
REMARK  222  A    between atoms: _549  and  _550
REMARK  223  A    between atoms: _553  and  _555
REMARK  224  A    between atoms: _555  and  _556
REMARK  225  A    between atoms: _559  and  _561
REMARK  226  A    between atoms: _561  and  _562
REMARK  227  A    between atoms: _561  and  _564
REMARK  228  A    between atoms: _564  and  _565
REMARK  229  A    between atoms: _567  and  _569
REMARK  230  A    between atoms: _569  and  _570
REMARK  231  A    between atoms: _572  and  _574
REMARK  232  A    between atoms: _574  and  _575
REMARK  233  A    between atoms: _574  and  _577
REMARK  234  A    between atoms: _577  and  _578
REMARK  235  A    between atoms: _581  and  _583
REMARK  236  A    between atoms: _583  and  _584
REMARK  237  A    between atoms: _586  and  _588
REMARK  238  A    between atoms: _588  and  _589
REMARK  239  A    between atoms: _588  and  _591
REMARK  240  A    between atoms: _591  and  _592
REMARK  241  A    between atoms: _597  and  _599
REMARK  242  A    between atoms: _599  and  _600
REMARK  243  A    between atoms: _599  and  _602
REMARK  244  A    between atoms: _602  and  _603
REMARK  245  A    between atoms: _603  and  _604
REMARK  246  A    between atoms: _611  and  _612
REMARK  247  A    between atoms: _612  and  _628
REMARK  248  A    between atoms: _613  and  _615
REMARK  249  A    between atoms: _615  and  _616
REMARK  250  A    between atoms: _616  and  _617
REMARK  251  A    between atoms: _621  and  _623
REMARK  252  A    between atoms: _623  and  _624
REMARK  253  A    between atoms: _623  and  _631
REMARK  254  A    between atoms: _624  and  _625
REMARK  255  A    between atoms: _625  and  _626
REMARK  256  A    between atoms: _626  and  _627
REMARK  257  A    between atoms: _627  and  _628
REMARK  258  A    between atoms: _633  and  _635
REMARK  259  A    between atoms: _635  and  _636
REMARK  260  A    between atoms: _635  and  _638
REMARK  261  A    between atoms: _638  and  _639
REMARK  262  A    between atoms: _642  and  _644
REMARK  263  A    between atoms: _644  and  _645
REMARK  264  A    between atoms: _647  and  _649
REMARK  265  A    between atoms: _649  and  _650
REMARK  266  A    between atoms: _653  and  _655
REMARK  267  A    between atoms: _655  and  _656
REMARK  268  A    between atoms: _655  and  _658
REMARK  269  A    between atoms: _658  and  _659
REMARK  270  A    between atoms: _664  and  _665
REMARK                            x       y       z     vdW  Elec       q    Type
REMARK                         _______ _______ _______ _____ _____    ______ ____
ROOT
ATOM      1  CB  PHE A   1      29.068  11.358  32.995  0.00  0.00    +0.051 C 
ENDROOT
BRANCH   1   2
ATOM      2  CG  PHE A   1      29.746  11.589  31.732  0.00  0.00    -0.020 A 
ATOM      3  CD2 PHE A   1      31.131  11.712  31.680  0.00  0.00    -0.004 A 
ATOM      4  CE2 PHE A   1      31.782  11.925  30.437  0.00  0.00    -0.000 A 
ATOM      5  CZ  PHE A   1      31.047  12.013  29.291  0.00  0.00    -0.000 A 
ATOM      6  CE1 PHE A   1      29.663  11.894  29.332  0.00  0.00    -0.000 A 
ATOM      7  CD1 PHE A   1      29.026  11.661  30.556  0.00  0.00    -0.004 A 
ENDBRANCH   1   2
BRANCH   1   8
ATOM      8  CA  PHE A   1      27.608  11.038  32.836  0.00  0.00    +0.137 C 
BRANCH   8   9
ATOM      9  N   PHE A   1      26.816  12.235  32.609  0.00  0.00    -0.239 NA
ATOM     10  H   PHE A   1      27.266  13.172  32.634  0.00  0.00    +0.142 HD
ENDBRANCH   8   9
BRANCH   8  11
ATOM     11  C   PHE A   1      27.135  10.244  34.020  0.00  0.00    +0.224 C 
ATOM     12  O   PHE A   1      27.039   9.026  33.879  0.00  0.00    -0.287 OA
ENDBRANCH   8  11
ENDBRANCH   1   8
TORSDOF 4
REMARK  Name = ../refined-set-2016/4el0/4el0_pocket.pdb
REMARK  270 active torsions:
REMARK  status: ('A' for Active; 'I' for Inactive)
REMARK    1  A    between atoms: _1  and  _3
REMARK    2  A    between atoms: _3  and  _4
REMARK    3  A    between atoms: _3  and  _6
REMARK    4  A    between atoms: _6  and  _7
REMARK    5  A    between atoms: _12  and  _13
REMARK    6  A    between atoms: _15  and  _17
REMARK    7  A    between atoms: _17  and  _18
REMARK    8  A    between atoms: _17  and  _20
REMARK    9  A    between atoms: _20  and  _21
REMARK   10  A    between atoms: _21  and  _22
REMARK   11  A    between atoms: _25  and  _27
REMARK   12  A    between atoms: _27  and  _28
REMARK   13  A    between atoms: _27  and  _30
REMARK   14  A    between atoms: _30  and  _31
REMARK   15  A    between atoms: _36  and  _38
REMARK   16  A    between atoms: _38  and  _39
REMARK   17  A    between atoms: _41  and  _43
REMARK   18  A    between atoms: _43  and  _44
REMARK   19  A    between atoms: _46  and  _48
REMARK   20  A    between atoms: _48  and  _49
REMARK   21  A    between atoms: _48  and  _51
REMARK   22  A    between atoms: _51  and  _52
REMARK   23  A    between atoms: _55  and  _57
REMARK   24  A    between atoms: _57  and  _58
REMARK   25  A    between atoms: _60  and  _62
REMARK   26  A    between atoms: _62  and  _63
REMARK   27  A    between atoms: _62  and  _65
REMARK   28  A    between atoms: _66  and  _67
REMARK   29  A    between atoms: _67  and  _68
REMARK   30  A    between atoms: _77  and  _79
REMARK   31  A    between atoms: _79  and  _80
REMARK   32  A    between atoms: _79  and  _82
REMARK   33  A    between atoms: _82  and  _83
REMARK   34  A    between atoms: _86  and  _88
REMARK   35  A    between atoms: _88  and  _89
REMARK   36  A    between atoms: _92  and  _94
REMARK   37  A    between atoms: _94  and  _95
REMARK   38  A    between atoms: _94  and  _97
REMARK   39  A    between atoms: _97  and  _98
REMARK   40  A    between atoms: _104  and  _106
REMARK   41  A    between atoms: _106  and  _107
REMARK   42  A    between atoms: _106  and  _109
REMARK   43  A    between atoms: _109  and  _110
REMARK   44  A    between atoms: _115  and  _117
REMARK   45  A    between atoms: _117  and  _118
REMARK   46  A    between atoms: _117  and  _120
REMARK   47  A    between atoms: _120  and  _121
REMARK   48  A    between atoms: _124  and  _126
REMARK   49  A    between atoms: _126  and  _127
REMARK   50  A    between atoms: _126  and  _129
REMARK   51  A    between atoms: _129  and  _130
REMARK   52  A    between atoms: _135  and  _137
REMARK   53  A    between atoms: _137  and  _138
REMARK   54  A    between atoms: _137  and  _140
REMARK   55  A    between atoms: _140  and  _141
REMARK   56  A    between atoms: _147  and  _149
REMARK   57  A    between atoms: _149  and  _150
REMARK   58  A    between atoms: _149  and  _152
REMARK   59  A    between atoms: _152  and  _153
REMARK   60  A    between atoms: _159  and  _161
REMARK   61  A    between atoms: _161  and  _162
REMARK   62  A    between atoms: _161  and  _164
REMARK   63  A    between atoms: _164  and  _165
REMARK   64  A    between atoms: _165  and  _166
REMARK   65  A    between atoms: _169  and  _171
REMARK   66  A    between atoms: _171  and  _172
REMARK   67  A    between atoms: _171  and  _174
REMARK   68  A    between atoms: _174  and  _175
REMARK   69  A    between atoms: _175  and  _176
REMARK   70  A    between atoms: _176  and  _177
REMARK   71  A    between atoms: _186  and  _188
REMARK   72  A    between atoms: _188  and  _189
REMARK   73  A    between atoms: _188  and  _191
REMARK   74  A    between atoms: _191  and  _192
REMARK   75  A    between atoms: _192  and  _193
REMARK   76  A    between atoms: _196  and  _198
REMARK   77  A    between atoms: _198  and  _199
REMARK   78  A    between atoms: _198  and  _201
REMARK   79  A    between atoms: _201  and  _202
REMARK   80  A    between atoms: _207  and  _209
REMARK   81  A    between atoms: _209  and  _210
REMARK   82  A    between atoms: _209  and  _212
REMARK   83  A    between atoms: _212  and  _213
REMARK   84  A    between atoms: _216  and  _218
REMARK   85  A    between atoms: _218  and  _219
REMARK   86  A    between atoms: _218  and  _221
REMARK   87  A    between atoms: _221  and  _222
REMARK   88  A    between atoms: _225  and  _227
REMARK   89  A    between atoms: _227  and  _228
REMARK   90  A    between atoms: _227  and  _230
REMARK   91  A    between atoms: _230  and  _231
REMARK   92  A    between atoms: _236  and  _238
REMARK   93  A    between atoms: _238  and  _239
REMARK   94  A    between atoms: _238  and  _241
REMARK   95  A    between atoms: _241  and  _242
REMARK   96  A    between atoms: _247  and  _248
REMARK   97  A    between atoms: _250  and  _252
REMARK   98  A    between atoms: _252  and  _253
REMARK   99  A    between atoms: _252  and  _255
REMARK  100  A    between atoms: _255  and  _256
REMARK  101  A    between atoms: _259  and  _261
REMARK  102  A    between atoms: _261  and  _262
REMARK  103  A    between atoms: _261  and  _264
REMARK  104  A    between atoms: _264  and  _265
REMARK  105  A    between atoms: _270  and  _272
REMARK  106  A    between atoms: _272  and  _273
REMARK  107  A    between atoms: _272  and  _275
REMARK  108  A    between atoms: _275  and  _276
REMARK  109  A    between atoms: _281  and  _283
REMARK  110  A    between atoms: _283  and  _284
REMARK  111  A    between atoms: _283  and  _286
REMARK  112  A    between atoms: _286  and  _287
REMARK  113  A    between atoms: _290  and  _292
REMARK  114  A    between atoms: _292  and  _293
REMARK  115  A    between atoms: _292  and  _295
REMARK  116  A    between atoms: _298  and  _300
REMARK  117  A    between atoms: _300  and  _301
REMARK  118  A    between atoms: _300  and  _303
REMARK  119  A    between atoms: _303  and  _304
REMARK  120  A    between atoms: _307  and  _309
REMARK  121  A    between atoms: _309  and  _310
REMARK  122  A    between atoms: _309  and  _312
REMARK  123  A    between atoms: _312  and  _313
REMARK  124  A    between atoms: _313  and  _314
REMARK  125  A    between atoms: _317  and  _319
REMARK  126  A    between atoms: _319  and  _320
REMARK  127  A    between atoms: _323  and  _325
REMARK  128  A    between atoms: _325  and  _326
REMARK  129  A    between atoms: _325  and  _328
REMARK  130  A    between atoms: _328  and  _329
REMARK  131  A    between atoms: _332  and  _334
REMARK  132  A    between atoms: _334  and  _335
REMARK  133  A    between atoms: _334  and  _337
REMARK  134  A    between atoms: _337  and  _338
REMARK  135  A    between atoms: _338  and  _339
REMARK  136  A    between atoms: _342  and  _344
REMARK  137  A    between atoms: _344  and  _345
REMARK  138  A    between atoms: _344  and  _347
REMARK  139  A    between atoms: _347  and  _348
REMARK  140  A    between atoms: _348  and  _349
REMARK  141  A    between atoms: _349  and  _350
REMARK  142  A    between atoms: _359  and  _361
REMARK  143  A    between atoms: _361  and  _362
REMARK  144  A    between atoms: _361  and  _364
REMARK  145  A    between atoms: _364  and  _365
REMARK  146  A    between atoms: _375  and  _377
REMARK  147  A    between atoms: _377  and  _378
REMARK  148  A    between atoms: _377  and  _380
REMARK  149  A    between atoms: _380  and  _381
REMARK  150  A    between atoms: _381  and  _382
REMARK  151  A    between atoms: _384  and  _386
REMARK  152  A    between atoms: _386  and  _387
REMARK  153  A    between atoms: _390  and  _392
REMARK  154  A    between atoms: _392  and  _393
REMARK  155  A    between atoms: _392  and  _395
REMARK  156  A    between atoms: _395  and  _396
REMARK  157  A    between atoms: _401  and  _403
REMARK  158  A    between atoms: _403  and  _404
REMARK  159  A    between atoms: _406  and  _408
REMARK  160  A    between atoms: _408  and  _409
REMARK  161  A    between atoms: _408  and  _411
REMARK  162  A    between atoms: _414  and  _416
REMARK  163  A    between atoms: _416  and  _417
REMARK  164  A    between atoms: _420  and  _422
REMARK  165  A    between atoms: _422  and  _423
REMARK  166  A    between atoms: _422  and  _425
REMARK  167  A    between atoms: _425  and  _426
REMARK  168  A    between atoms: _431  and  _433
REMARK  169  A    between atoms: _433  and  _434
REMARK  170  A    between atoms: _433  and  _436
REMARK  171  A    between atoms: _436  and  _437
REMARK  172  A    between atoms: _437  and  _438
REMARK  173  A    between atoms: _438  and  _439
REMARK  174  A    between atoms: _439  and  _440
REMARK  175  A    between atoms: _444  and  _446
REMARK  176  A    between atoms: _446  and  _447
REMARK  177  A    between atoms: _446  and  _449
REMARK  178  A    between atoms: _449  and  _450
REMARK  179  A    between atoms: _453  and  _455
REMARK  180  A    between atoms: _455  and  _456
REMARK  181  A    between atoms: _455  and  _458
REMARK  182  A    between atoms: _458  and  _459
REMARK  183  A    between atoms: _464  and  _466
REMARK  184  A    between atoms: _466  and  _467
REMARK  185  A    between atoms: _469  and  _471
REMARK  186  A    between atoms: _471  and  _472
REMARK  187  A    between atoms: _471  and  _474
REMARK  188  A    between atoms: _474  and  _475
REMARK  189  A    between atoms: _475  and  _476
REMARK  190  A    between atoms: _476  and  _477
REMARK  191  A    between atoms: _477  and  _478
REMARK  192  A    between atoms: _482  and  _484
REMARK  193  A    between atoms: _484  and  _485
REMARK  194  A    between atoms: _484  and  _487
REMARK  195  A    between atoms: _487  and  _488
REMARK  196  A    between atoms: _488  and  _489
REMARK  197  A    between atoms: _489  and  _490
REMARK  198  A    between atoms: _499  and  _501
REMARK  199  A    between atoms: _501  and  _502
REMARK  200  A    between atoms: _501  and  _504
REMARK  201  A    between atoms: _504  and  _505
REMARK  202  A    between atoms: _510  and  _511
REMARK  203  A    between atoms: _513  and  _515
REMARK  204  A    between atoms: _515  and  _516
REMARK  205  A    between atoms: _515  and  _518
REMARK  206  A    between atoms: _518  and  _519
REMARK  207  A    between atoms: _519  and  _520
REMARK  208  A    between atoms: _520  and  _521
REMARK  209  A    between atoms: _521  and  _522
REMARK  210  A    between atoms: _526  and  _528
REMARK  211  A    between atoms: _528  and  _529
REMARK  212  A    between atoms: _528  and  _531
REMARK  213  A    between atoms: _531  and  _532
REMARK  214  A    between atoms: _534  and  _536
REMARK  215  A    between atoms: _536  and  _537
REMARK  216  A    between atoms: _536  and  _539
REMARK  217  A    between atoms: _539  and  _540
REMARK  218  A    between atoms: _543  and  _545
REMARK  219  A    between atoms: _545  and  _546
REMARK  220  A    between atoms: _545  and  _548
REMARK  221  A    between atoms: _548  and  _549
REMARK  222  A    between atoms: _549  and  _550
REMARK  223  A    between atoms: _553  and  _555
REMARK  224  A    between atoms: _555  and  _556
REMARK  225  A    between atoms: _559  and  _561
REMARK  226  A    between atoms: _561  and  _562
REMARK  227  A    between atoms: _561  and  _564
REMARK  228  A    between atoms: _564  and  _565
REMARK  229  A    between atoms: _567  and  _569
REMARK  230  A    between atoms: _569  and  _570
REMARK  231  A    between atoms: _572  and  _574
REMARK  232  A    between atoms: _574  and  _575
REMARK  233  A    between atoms: _574  and  _577
REMARK  234  A    between atoms: _577  and  _578
REMARK  235  A    between atoms: _581  and  _583
REMARK  236  A    between atoms: _583  and  _584
REMARK  237  A    between atoms: _586  and  _588
REMARK  238  A    between atoms: _588  and  _589
REMARK  239  A    between atoms: _588  and  _591
REMARK  240  A    between atoms: _591  and  _592
REMARK  241  A    between atoms: _597  and  _599
REMARK  242  A    between atoms: _599  and  _600
REMARK  243  A    between atoms: _599  and  _602
REMARK  244  A    between atoms: _602  and  _603
REMARK  245  A    between atoms: _603  and  _604
REMARK  246  A    between atoms: _611  and  _612
REMARK  247  A    between atoms: _612  and  _628
REMARK  248  A    between atoms: _613  and  _615
REMARK  249  A    between atoms: _615  and  _616
REMARK  250  A    between atoms: _616  and  _617
REMARK  251  A    between atoms: _621  and  _623
REMARK  252  A    between atoms: _623  and  _624
REMARK  253  A    between atoms: _623  and  _631
REMARK  254  A    between atoms: _624  and  _625
REMARK  255  A    between atoms: _625  and  _626
REMARK  256  A    between atoms: _626  and  _627
REMARK  257  A    between atoms: _627  and  _628
REMARK  258  A    between atoms: _633  and  _635
REMARK  259  A    between atoms: _635  and  _636
REMARK  260  A    between atoms: _635  and  _638
REMARK  261  A    between atoms: _638  and  _639
REMARK  262  A    between atoms: _642  and  _644
REMARK  263  A    between atoms: _644  and  _645
REMARK  264  A    between atoms: _647  and  _649
REMARK  265  A    between atoms: _649  and  _650
REMARK  266  A    between atoms: _653  and  _655
REMARK  267  A    between atoms: _655  and  _656
REMARK  268  A    between atoms: _655  and  _658
REMARK  269  A    between atoms: _658  and  _659
REMARK  270  A    between atoms: _664  and  _665
REMARK                            x       y       z     vdW  Elec       q    Type
REMARK                         _______ _______ _______ _____ _____    ______ ____
ROOT
ATOM      1  C   ASN A   3      38.326  30.810  30.228  0.00  0.00    +0.241 C 
ATOM      2  N   PHE A   4      38.665  31.192  31.479  0.00  0.00    -0.297 N 
ATOM      3  H   PHE A   4      38.033  30.919  32.258  0.00  0.00    +0.150 HD
ATOM      4  O   ASN A   3      38.932  31.191  29.233  0.00  0.00    -0.273 OA
ENDROOT
BRANCH   2   5
ATOM      5  CA  PHE A   4      39.893  31.984  31.818  0.00  0.00    +0.153 C 
BRANCH   5   6
ATOM      6  C   PHE A   4      40.594  31.547  33.173  0.00  0.00    +0.241 C 
ATOM      7  O   PHE A   4      39.965  31.538  34.228  0.00  0.00    -0.273 OA
ATOM      8  N   PHE A   5      41.879  31.215  33.184  0.00  0.00    -0.297 N 
ATOM      9  H   PHE A   5      42.456  31.304  32.323  0.00  0.00    +0.150 HD
BRANCH   8  10
ATOM     10  CA  PHE A   5      42.470  30.722  34.428  0.00  0.00    +0.153 C 
BRANCH  10  11
ATOM     11  C   PHE A   5      42.926  31.800  35.413  0.00  0.00    +0.241 C 
ATOM     12  N   GLU A   6      42.500  31.668  36.653  0.00  0.00    -0.298 N 
ATOM     13  H   GLU A   6      41.801  30.935  36.889  0.00  0.00    +0.150 HD
ATOM     14  O   PHE A   5      43.698  32.687  35.094  0.00  0.00    -0.273 OA
BRANCH  12  15
ATOM     15  CA  GLU A   6      43.011  32.550  37.689  0.00  0.00    +0.137 C 
BRANCH  15  16
ATOM     16  C   GLU A   6      43.695  31.749  38.770  0.00  0.00    +0.227 C 
ATOM     17  O   GLU A   6      43.076  30.849  39.372  0.00  0.00    -0.286 OA
ENDBRANCH  15  16
BRANCH  15  18
ATOM     18  CB  GLU A   6      41.853  33.330  38.297  0.00  0.00    +0.039 C 
BRANCH  18  19
ATOM     19  CG  GLU A   6      41.467  34.600  37.484  0.00  0.00    +0.116 C 
BRANCH  19  20
ATOM     20  CD  GLU A   6      40.463  35.443  38.256  0.00  0.00    +0.365 C 
ATOM     21  OE2 GLU A   6      40.876  36.526  38.772  0.00  0.00    -0.246 OA
ATOM     22  OE1 GLU A   6      39.291  34.984  38.396  0.00  0.00    -0.246 OA
ENDBRANCH  19  20
ENDBRANCH  18  19
ENDBRANCH  15  18
ENDBRANCH  12  15
ENDBRANCH  10  11
BRANCH  10  23
ATOM     23  CB  PHE A   5      43.615  29.739  34.127  0.00  0.00    +0.055 C 
BRANCH  23  24
ATOM     24  CG  PHE A   5      44.422  29.307  35.339  0.00  0.00    -0.020 A 
ATOM     25  CD2 PHE A   5      43.877  28.467  36.281  0.00  0.00    -0.004 A 
ATOM     26  CE2 PHE A   5      44.622  28.036  37.408  0.00  0.00    -0.000 A 
ATOM     27  CZ  PHE A   5      45.908  28.433  37.554  0.00  0.00    -0.000 A 
ATOM     28  CE1 PHE A   5      46.499  29.304  36.562  0.00  0.00    -0.000 A 
ATOM     29  CD1 PHE A   5      45.743  29.732  35.506  0.00  0.00    -0.004 A 
ENDBRANCH  23  24
ENDBRANCH  10  23
ENDBRANCH   8  10
ENDBRANCH   5   6
BRANCH   5  30
ATOM     30  CB  PHE A   4      39.583  33.497  31.805  0.00  0.00    +0.055 C 
BRANCH  30  31
ATOM     31  CG  PHE A   4      40.796  34.384  32.060  0.00  0.00    -0.020 A 
ATOM     32  CD2 PHE A   4      41.066  34.888  33.348  0.00  0.00    -0.004 A 
ATOM     33  CE2 PHE A   4      42.221  35.727  33.611  0.00  0.00    -0.000 A 
ATOM     34  CZ  PHE A   4      43.113  36.062  32.557  0.00  0.00    -0.000 A 
ATOM     35  CE1 PHE A   4      42.838  35.575  31.248  0.00  0.00    -0.000 A 
ATOM     36  CD1 PHE A   4      41.670  34.731  31.014  0.00  0.00    -0.004 A 
ENDBRANCH  30  31
ENDBRANCH   5  30
ENDBRANCH   2   5
BRANCH   1  37
ATOM     37  CA  ASN A   3      37.132  29.828  30.073  0.00  0.00    +0.158 C 
BRANCH  37  40
ATOM     38  C   ASP A   2      36.258  29.176  32.138  0.00  0.00    +0.241 C 
ATOM     39  O   ASP A   2      37.293  28.434  32.302  0.00  0.00    -0.273 OA
ATOM     40  N   ASN A   3      36.130  29.986  31.094  0.00  0.00    -0.297 N 
ATOM     41  H   ASN A   3      35.362  30.683  31.019  0.00  0.00    +0.150 HD
BRANCH  38  42
ATOM     42  CA  ASP A   2      35.083  29.161  33.133  0.00  0.00    +0.160 C 
BRANCH  42  45
ATOM     43  C   ASN A   1      35.570  30.645  34.900  0.00  0.00    +0.239 C 
ATOM     44  O   ASN A   1      36.393  29.832  35.253  0.00  0.00    -0.274 OA
ATOM     45  N   ASP A   2      34.811  30.415  33.842  0.00  0.00    -0.297 N 
ATOM     46  H   ASP A   2      34.072  31.078  33.534  0.00  0.00    +0.150 HD
BRANCH  43  47
ATOM     47  CA  ASN A   1      35.412  31.897  35.724  0.00  0.00    +0.154 C 
BRANCH  47  48
ATOM     48  N   ASN A   1      34.606  31.551  36.913  0.00  0.00    -0.238 NA
ATOM     49  H   ASN A   1      35.089  31.256  37.785  0.00  0.00    +0.142 HD
ENDBRANCH  47  48
BRANCH  47  50
ATOM     50  CB  ASN A   1      36.821  32.408  36.133  0.00  0.00    +0.111 C 
BRANCH  50  51
ATOM     51  CG  ASN A   1      37.566  31.419  37.125  0.00  0.00    +0.221 C 
ATOM     52  OD1 ASN A   1      37.291  31.424  38.332  0.00  0.00    -0.275 OA
ATOM     53  ND2 ASN A   1      38.486  30.579  36.610  0.00  0.00    -0.329 N 
ATOM     54 HD21 ASN A   1      38.986  29.912  37.231  0.00  0.00    +0.145 HD
ATOM     55 HD22 ASN A   1      38.695  30.598  35.591  0.00  0.00    +0.145 HD
ENDBRANCH  50  51
ENDBRANCH  47  50
ENDBRANCH  43  47
ENDBRANCH  42  45
BRANCH  42  56
ATOM     56  CB  ASP A   2      33.872  28.586  32.448  0.00  0.00    +0.143 C 
BRANCH  56  57
ATOM     57  CG  ASP A   2      33.076  29.592  31.742  0.00  0.00    +0.367 C 
ATOM     58  OD2 ASP A   2      33.449  30.769  31.763  0.00  0.00    -0.246 OA
ATOM     59  OD1 ASP A   2      32.054  29.171  31.164  0.00  0.00    -0.246 OA
ENDBRANCH  56  57
ENDBRANCH  42  56
ENDBRANCH  38  42
ENDBRANCH  37  40
BRANCH  37  60
ATOM     60  CB  ASN A   3      36.479  29.721  28.660  0.00  0.00    +0.114 C 
BRANCH  60  61
ATOM     61  CG  ASN A   3      36.040  28.225  28.271  0.00  0.00    +0.222 C 
ATOM     62  OD1 ASN A   3      34.937  27.747  28.634  0.00  0.00    -0.275 OA
ATOM     63  ND2 ASN A   3      36.898  27.525  27.491  0.00  0.00    -0.329 N 
ATOM     64 HD21 ASN A   3      37.805  27.947  27.206  0.00  0.00    +0.145 HD
ATOM     65 HD22 ASN A   3      36.650  26.565  27.177  0.00  0.00    +0.145 HD
ENDBRANCH  60  61
ENDBRANCH  37  60
ENDBRANCH   1  37
TORSDOF 25
REMARK  Name = ../refined-set-2016/4el0/4el0_pocket.pdb
REMARK  270 active torsions:
REMARK  status: ('A' for Active; 'I' for Inactive)
REMARK    1  A    between atoms: _1  and  _3
REMARK    2  A    between atoms: _3  and  _4
REMARK    3  A    between atoms: _3  and  _6
REMARK    4  A    between atoms: _6  and  _7
REMARK    5  A    between atoms: _12  and  _13
REMARK    6  A    between atoms: _15  and  _17
REMARK    7  A    between atoms: _17  and  _18
REMARK    8  A    between atoms: _17  and  _20
REMARK    9  A    between atoms: _20  and  _21
REMARK   10  A    between atoms: _21  and  _22
REMARK   11  A    between atoms: _25  and  _27
REMARK   12  A    between atoms: _27  and  _28
REMARK   13  A    between atoms: _27  and  _30
REMARK   14  A    between atoms: _30  and  _31
REMARK   15  A    between atoms: _36  and  _38
REMARK   16  A    between atoms: _38  and  _39
REMARK   17  A    between atoms: _41  and  _43
REMARK   18  A    between atoms: _43  and  _44
REMARK   19  A    between atoms: _46  and  _48
REMARK   20  A    between atoms: _48  and  _49
REMARK   21  A    between atoms: _48  and  _51
REMARK   22  A    between atoms: _51  and  _52
REMARK   23  A    between atoms: _55  and  _57
REMARK   24  A    between atoms: _57  and  _58
REMARK   25  A    between atoms: _60  and  _62
REMARK   26  A    between atoms: _62  and  _63
REMARK   27  A    between atoms: _62  and  _65
REMARK   28  A    between atoms: _66  and  _67
REMARK   29  A    between atoms: _67  and  _68
REMARK   30  A    between atoms: _77  and  _79
REMARK   31  A    between atoms: _79  and  _80
REMARK   32  A    between atoms: _79  and  _82
REMARK   33  A    between atoms: _82  and  _83
REMARK   34  A    between atoms: _86  and  _88
REMARK   35  A    between atoms: _88  and  _89
REMARK   36  A    between atoms: _92  and  _94
REMARK   37  A    between atoms: _94  and  _95
REMARK   38  A    between atoms: _94  and  _97
REMARK   39  A    between atoms: _97  and  _98
REMARK   40  A    between atoms: _104  and  _106
REMARK   41  A    between atoms: _106  and  _107
REMARK   42  A    between atoms: _106  and  _109
REMARK   43  A    between atoms: _109  and  _110
REMARK   44  A    between atoms: _115  and  _117
REMARK   45  A    between atoms: _117  and  _118
REMARK   46  A    between atoms: _117  and  _120
REMARK   47  A    between atoms: _120  and  _121
REMARK   48  A    between atoms: _124  and  _126
REMARK   49  A    between atoms: _126  and  _127
REMARK   50  A    between atoms: _126  and  _129
REMARK   51  A    between atoms: _129  and  _130
REMARK   52  A    between atoms: _135  and  _137
REMARK   53  A    between atoms: _137  and  _138
REMARK   54  A    between atoms: _137  and  _140
REMARK   55  A    between atoms: _140  and  _141
REMARK   56  A    between atoms: _147  and  _149
REMARK   57  A    between atoms: _149  and  _150
REMARK   58  A    between atoms: _149  and  _152
REMARK   59  A    between atoms: _152  and  _153
REMARK   60  A    between atoms: _159  and  _161
REMARK   61  A    between atoms: _161  and  _162
REMARK   62  A    between atoms: _161  and  _164
REMARK   63  A    between atoms: _164  and  _165
REMARK   64  A    between atoms: _165  and  _166
REMARK   65  A    between atoms: _169  and  _171
REMARK   66  A    between atoms: _171  and  _172
REMARK   67  A    between atoms: _171  and  _174
REMARK   68  A    between atoms: _174  and  _175
REMARK   69  A    between atoms: _175  and  _176
REMARK   70  A    between atoms: _176  and  _177
REMARK   71  A    between atoms: _186  and  _188
REMARK   72  A    between atoms: _188  and  _189
REMARK   73  A    between atoms: _188  and  _191
REMARK   74  A    between atoms: _191  and  _192
REMARK   75  A    between atoms: _192  and  _193
REMARK   76  A    between atoms: _196  and  _198
REMARK   77  A    between atoms: _198  and  _199
REMARK   78  A    between atoms: _198  and  _201
REMARK   79  A    between atoms: _201  and  _202
REMARK   80  A    between atoms: _207  and  _209
REMARK   81  A    between atoms: _209  and  _210
REMARK   82  A    between atoms: _209  and  _212
REMARK   83  A    between atoms: _212  and  _213
REMARK   84  A    between atoms: _216  and  _218
REMARK   85  A    between atoms: _218  and  _219
REMARK   86  A    between atoms: _218  and  _221
REMARK   87  A    between atoms: _221  and  _222
REMARK   88  A    between atoms: _225  and  _227
REMARK   89  A    between atoms: _227  and  _228
REMARK   90  A    between atoms: _227  and  _230
REMARK   91  A    between atoms: _230  and  _231
REMARK   92  A    between atoms: _236  and  _238
REMARK   93  A    between atoms: _238  and  _239
REMARK   94  A    between atoms: _238  and  _241
REMARK   95  A    between atoms: _241  and  _242
REMARK   96  A    between atoms: _247  and  _248
REMARK   97  A    between atoms: _250  and  _252
REMARK   98  A    between atoms: _252  and  _253
REMARK   99  A    between atoms: _252  and  _255
REMARK  100  A    between atoms: _255  and  _256
REMARK  101  A    between atoms: _259  and  _261
REMARK  102  A    between atoms: _261  and  _262
REMARK  103  A    between atoms: _261  and  _264
REMARK  104  A    between atoms: _264  and  _265
REMARK  105  A    between atoms: _270  and  _272
REMARK  106  A    between atoms: _272  and  _273
REMARK  107  A    between atoms: _272  and  _275
REMARK  108  A    between atoms: _275  and  _276
REMARK  109  A    between atoms: _281  and  _283
REMARK  110  A    between atoms: _283  and  _284
REMARK  111  A    between atoms: _283  and  _286
REMARK  112  A    between atoms: _286  and  _287
REMARK  113  A    between atoms: _290  and  _292
REMARK  114  A    between atoms: _292  and  _293
REMARK  115  A    between atoms: _292  and  _295
REMARK  116  A    between atoms: _298  and  _300
REMARK  117  A    between atoms: _300  and  _301
REMARK  118  A    between atoms: _300  and  _303
REMARK  119  A    between atoms: _303  and  _304
REMARK  120  A    between atoms: _307  and  _309
REMARK  121  A    between atoms: _309  and  _310
REMARK  122  A    between atoms: _309  and  _312
REMARK  123  A    between atoms: _312  and  _313
REMARK  124  A    between atoms: _313  and  _314
REMARK  125  A    between atoms: _317  and  _319
REMARK  126  A    between atoms: _319  and  _320
REMARK  127  A    between atoms: _323  and  _325
REMARK  128  A    between atoms: _325  and  _326
REMARK  129  A    between atoms: _325  and  _328
REMARK  130  A    between atoms: _328  and  _329
REMARK  131  A    between atoms: _332  and  _334
REMARK  132  A    between atoms: _334  and  _335
REMARK  133  A    between atoms: _334  and  _337
REMARK  134  A    between atoms: _337  and  _338
REMARK  135  A    between atoms: _338  and  _339
REMARK  136  A    between atoms: _342  and  _344
REMARK  137  A    between atoms: _344  and  _345
REMARK  138  A    between atoms: _344  and  _347
REMARK  139  A    between atoms: _347  and  _348
REMARK  140  A    between atoms: _348  and  _349
REMARK  141  A    between atoms: _349  and  _350
REMARK  142  A    between atoms: _359  and  _361
REMARK  143  A    between atoms: _361  and  _362
REMARK  144  A    between atoms: _361  and  _364
REMARK  145  A    between atoms: _364  and  _365
REMARK  146  A    between atoms: _375  and  _377
REMARK  147  A    between atoms: _377  and  _378
REMARK  148  A    between atoms: _377  and  _380
REMARK  149  A    between atoms: _380  and  _381
REMARK  150  A    between atoms: _381  and  _382
REMARK  151  A    between atoms: _384  and  _386
REMARK  152  A    between atoms: _386  and  _387
REMARK  153  A    between atoms: _390  and  _392
REMARK  154  A    between atoms: _392  and  _393
REMARK  155  A    between atoms: _392  and  _395
REMARK  156  A    between atoms: _395  and  _396
REMARK  157  A    between atoms: _401  and  _403
REMARK  158  A    between atoms: _403  and  _404
REMARK  159  A    between atoms: _406  and  _408
REMARK  160  A    between atoms: _408  and  _409
REMARK  161  A    between atoms: _408  and  _411
REMARK  162  A    between atoms: _414  and  _416
REMARK  163  A    between atoms: _416  and  _417
REMARK  164  A    between atoms: _420  and  _422
REMARK  165  A    between atoms: _422  and  _423
REMARK  166  A    between atoms: _422  and  _425
REMARK  167  A    between atoms: _425  and  _426
REMARK  168  A    between atoms: _431  and  _433
REMARK  169  A    between atoms: _433  and  _434
REMARK  170  A    between atoms: _433  and  _436
REMARK  171  A    between atoms: _436  and  _437
REMARK  172  A    between atoms: _437  and  _438
REMARK  173  A    between atoms: _438  and  _439
REMARK  174  A    between atoms: _439  and  _440
REMARK  175  A    between atoms: _444  and  _446
REMARK  176  A    between atoms: _446  and  _447
REMARK  177  A    between atoms: _446  and  _449
REMARK  178  A    between atoms: _449  and  _450
REMARK  179  A    between atoms: _453  and  _455
REMARK  180  A    between atoms: _455  and  _456
REMARK  181  A    between atoms: _455  and  _458
REMARK  182  A    between atoms: _458  and  _459
REMARK  183  A    between atoms: _464  and  _466
REMARK  184  A    between atoms: _466  and  _467
REMARK  185  A    between atoms: _469  and  _471
REMARK  186  A    between atoms: _471  and  _472
REMARK  187  A    between atoms: _471  and  _474
REMARK  188  A    between atoms: _474  and  _475
REMARK  189  A    between atoms: _475  and  _476
REMARK  190  A    between atoms: _476  and  _477
REMARK  191  A    between atoms: _477  and  _478
REMARK  192  A    between atoms: _482  and  _484
REMARK  193  A    between atoms: _484  and  _485
REMARK  194  A    between atoms: _484  and  _487
REMARK  195  A    between atoms: _487  and  _488
REMARK  196  A    between atoms: _488  and  _489
REMARK  197  A    between atoms: _489  and  _490
REMARK  198  A    between atoms: _499  and  _501
REMARK  199  A    between atoms: _501  and  _502
REMARK  200  A    between atoms: _501  and  _504
REMARK  201  A    between atoms: _504  and  _505
REMARK  202  A    between atoms: _510  and  _511
REMARK  203  A    between atoms: _513  and  _515
REMARK  204  A    between atoms: _515  and  _516
REMARK  205  A    between atoms: _515  and  _518
REMARK  206  A    between atoms: _518  and  _519
REMARK  207  A    between atoms: _519  and  _520
REMARK  208  A    between atoms: _520  and  _521
REMARK  209  A    between atoms: _521  and  _522
REMARK  210  A    between atoms: _526  and  _528
REMARK  211  A    between atoms: _528  and  _529
REMARK  212  A    between atoms: _528  and  _531
REMARK  213  A    between atoms: _531  and  _532
REMARK  214  A    between atoms: _534  and  _536
REMARK  215  A    between atoms: _536  and  _537
REMARK  216  A    between atoms: _536  and  _539
REMARK  217  A    between atoms: _539  and  _540
REMARK  218  A    between atoms: _543  and  _545
REMARK  219  A    between atoms: _545  and  _546
REMARK  220  A    between atoms: _545  and  _548
REMARK  221  A    between atoms: _548  and  _549
REMARK  222  A    between atoms: _549  and  _550
REMARK  223  A    between atoms: _553  and  _555
REMARK  224  A    between atoms: _555  and  _556
REMARK  225  A    between atoms: _559  and  _561
REMARK  226  A    between atoms: _561  and  _562
REMARK  227  A    between atoms: _561  and  _564
REMARK  228  A    between atoms: _564  and  _565
REMARK  229  A    between atoms: _567  and  _569
REMARK  230  A    between atoms: _569  and  _570
REMARK  231  A    between atoms: _572  and  _574
REMARK  232  A    between atoms: _574  and  _575
REMARK  233  A    between atoms: _574  and  _577
REMARK  234  A    between atoms: _577  and  _578
REMARK  235  A    between atoms: _581  and  _583
REMARK  236  A    between atoms: _583  and  _584
REMARK  237  A    between atoms: _586  and  _588
REMARK  238  A    between atoms: _588  and  _589
REMARK  239  A    between atoms: _588  and  _591
REMARK  240  A    between atoms: _591  and  _592
REMARK  241  A    between atoms: _597  and  _599
REMARK  242  A    between atoms: _599  and  _600
REMARK  243  A    between atoms: _599  and  _602
REMARK  244  A    between atoms: _602  and  _603
REMARK  245  A    between atoms: _603  and  _604
REMARK  246  A    between atoms: _611  and  _612
REMARK  247  A    between atoms: _612  and  _628
REMARK  248  A    between atoms: _613  and  _615
REMARK  249  A    between atoms: _615  and  _616
REMARK  250  A    between atoms: _616  and  _617
REMARK  251  A    between atoms: _621  and  _623
REMARK  252  A    between atoms: _623  and  _624
REMARK  253  A    between atoms: _623  and  _631
REMARK  254  A    between atoms: _624  and  _625
REMARK  255  A    between atoms: _625  and  _626
REMARK  256  A    between atoms: _626  and  _627
REMARK  257  A    between atoms: _627  and  _628
REMARK  258  A    between atoms: _633  and  _635
REMARK  259  A    between atoms: _635  and  _636
REMARK  260  A    between atoms: _635  and  _638
REMARK  261  A    between atoms: _638  and  _639
REMARK  262  A    between atoms: _642  and  _644
REMARK  263  A    between atoms: _644  and  _645
REMARK  264  A    between atoms: _647  and  _649
REMARK  265  A    between atoms: _649  and  _650
REMARK  266  A    between atoms: _653  and  _655
REMARK  267  A    between atoms: _655  and  _656
REMARK  268  A    between atoms: _655  and  _658
REMARK  269  A    between atoms: _658  and  _659
REMARK  270  A    between atoms: _664  and  _665
REMARK                            x       y       z     vdW  Elec       q    Type
REMARK                         _______ _______ _______ _____ _____    ______ ____
ROOT
ATOM      1  NE  ARG A   1      39.338  26.055  40.444  0.00  0.00    -0.265 N 
ATOM      2  HE  ARG A   1      40.199  25.711  39.973  0.00  0.00    +0.259 HD
ATOM      3  CZ  ARG A   1      38.178  25.650  39.952  0.00  0.00    +0.342 C 
ATOM      4  NH2 ARG A   1      37.068  26.018  40.544  0.00  0.00    -0.292 N 
ATOM      5 HH21 ARG A   1      37.105  26.621  41.390  0.00  0.00    +0.255 HD
ATOM      6 HH22 ARG A   1      36.150  25.707  40.167  0.00  0.00    +0.255 HD
ATOM      7  NH1 ARG A   1      38.144  24.828  38.892  0.00  0.00    -0.292 N 
ATOM      8 HH11 ARG A   1      37.231  24.512  38.508  0.00  0.00    +0.255 HD
ATOM      9 HH12 ARG A   1      39.031  24.507  38.454  0.00  0.00    +0.255 HD
ENDROOT
BRANCH   1  10
ATOM     10  CD  ARG A   1      39.513  26.934  41.579  0.00  0.00    +0.174 C 
BRANCH  10  11
ATOM     11  CG  ARG A   1      40.914  27.500  41.609  0.00  0.00    +0.045 C 
BRANCH  11  12
ATOM     12  CB  ARG A   1      41.114  28.387  42.814  0.00  0.00    +0.029 C 
BRANCH  12  13
ATOM     13  CA  ARG A   1      41.005  27.703  44.177  0.00  0.00    +0.133 C 
BRANCH  13  14
ATOM     14  N   ARG A   1      41.269  28.654  45.259  0.00  0.00    -0.239 NA
ATOM     15  H   ARG A   1      41.614  29.606  45.023  0.00  0.00    +0.142 HD
ENDBRANCH  13  14
BRANCH  13  16
ATOM     16  C   ARG A   1      41.916  26.488  44.262  0.00  0.00    +0.224 C 
ATOM     17  O   ARG A   1      41.452  25.376  44.118  0.00  0.00    -0.287 OA
ENDBRANCH  13  16
ENDBRANCH  12  13
ENDBRANCH  11  12
ENDBRANCH  10  11
ENDBRANCH   1  10
TORSDOF 6
REMARK  Name = ../refined-set-2016/4el0/4el0_pocket.pdb
REMARK  270 active torsions:
REMARK  status: ('A' for Active; 'I' for Inactive)
REMARK    1  A    between atoms: _1  and  _3
REMARK    2  A    between atoms: _3  and  _4
REMARK    3  A    between atoms: _3  and  _6
REMARK    4  A    between atoms: _6  and  _7
REMARK    5  A    between atoms: _12  and  _13
REMARK    6  A    between atoms: _15  and  _17
REMARK    7  A    between atoms: _17  and  _18
REMARK    8  A    between atoms: _17  and  _20
REMARK    9  A    between atoms: _20  and  _21
REMARK   10  A    between atoms: _21  and  _22
REMARK   11  A    between atoms: _25  and  _27
REMARK   12  A    between atoms: _27  and  _28
REMARK   13  A    between atoms: _27  and  _30
REMARK   14  A    between atoms: _30  and  _31
REMARK   15  A    between atoms: _36  and  _38
REMARK   16  A    between atoms: _38  and  _39
REMARK   17  A    between atoms: _41  and  _43
REMARK   18  A    between atoms: _43  and  _44
REMARK   19  A    between atoms: _46  and  _48
REMARK   20  A    between atoms: _48  and  _49
REMARK   21  A    between atoms: _48  and  _51
REMARK   22  A    between atoms: _51  and  _52
REMARK   23  A    between atoms: _55  and  _57
REMARK   24  A    between atoms: _57  and  _58
REMARK   25  A    between atoms: _60  and  _62
REMARK   26  A    between atoms: _62  and  _63
REMARK   27  A    between atoms: _62  and  _65
REMARK   28  A    between atoms: _66  and  _67
REMARK   29  A    between atoms: _67  and  _68
REMARK   30  A    between atoms: _77  and  _79
REMARK   31  A    between atoms: _79  and  _80
REMARK   32  A    between atoms: _79  and  _82
REMARK   33  A    between atoms: _82  and  _83
REMARK   34  A    between atoms: _86  and  _88
REMARK   35  A    between atoms: _88  and  _89
REMARK   36  A    between atoms: _92  and  _94
REMARK   37  A    between atoms: _94  and  _95
REMARK   38  A    between atoms: _94  and  _97
REMARK   39  A    between atoms: _97  and  _98
REMARK   40  A    between atoms: _104  and  _106
REMARK   41  A    between atoms: _106  and  _107
REMARK   42  A    between atoms: _106  and  _109
REMARK   43  A    between atoms: _109  and  _110
REMARK   44  A    between atoms: _115  and  _117
REMARK   45  A    between atoms: _117  and  _118
REMARK   46  A    between atoms: _117  and  _120
REMARK   47  A    between atoms: _120  and  _121
REMARK   48  A    between atoms: _124  and  _126
REMARK   49  A    between atoms: _126  and  _127
REMARK   50  A    between atoms: _126  and  _129
REMARK   51  A    between atoms: _129  and  _130
REMARK   52  A    between atoms: _135  and  _137
REMARK   53  A    between atoms: _137  and  _138
REMARK   54  A    between atoms: _137  and  _140
REMARK   55  A    between atoms: _140  and  _141
REMARK   56  A    between atoms: _147  and  _149
REMARK   57  A    between atoms: _149  and  _150
REMARK   58  A    between atoms: _149  and  _152
REMARK   59  A    between atoms: _152  and  _153
REMARK   60  A    between atoms: _159  and  _161
REMARK   61  A    between atoms: _161  and  _162
REMARK   62  A    between atoms: _161  and  _164
REMARK   63  A    between atoms: _164  and  _165
REMARK   64  A    between atoms: _165  and  _166
REMARK   65  A    between atoms: _169  and  _171
REMARK   66  A    between atoms: _171  and  _172
REMARK   67  A    between atoms: _171  and  _174
REMARK   68  A    between atoms: _174  and  _175
REMARK   69  A    between atoms: _175  and  _176
REMARK   70  A    between atoms: _176  and  _177
REMARK   71  A    between atoms: _186  and  _188
REMARK   72  A    between atoms: _188  and  _189
REMARK   73  A    between atoms: _188  and  _191
REMARK   74  A    between atoms: _191  and  _192
REMARK   75  A    between atoms: _192  and  _193
REMARK   76  A    between atoms: _196  and  _198
REMARK   77  A    between atoms: _198  and  _199
REMARK   78  A    between atoms: _198  and  _201
REMARK   79  A    between atoms: _201  and  _202
REMARK   80  A    between atoms: _207  and  _209
REMARK   81  A    between atoms: _209  and  _210
REMARK   82  A    between atoms: _209  and  _212
REMARK   83  A    between atoms: _212  and  _213
REMARK   84  A    between atoms: _216  and  _218
REMARK   85  A    between atoms: _218  and  _219
REMARK   86  A    between atoms: _218  and  _221
REMARK   87  A    between atoms: _221  and  _222
REMARK   88  A    between atoms: _225  and  _227
REMARK   89  A    between atoms: _227  and  _228
REMARK   90  A    between atoms: _227  and  _230
REMARK   91  A    between atoms: _230  and  _231
REMARK   92  A    between atoms: _236  and  _238
REMARK   93  A    between atoms: _238  and  _239
REMARK   94  A    between atoms: _238  and  _241
REMARK   95  A    between atoms: _241  and  _242
REMARK   96  A    between atoms: _247  and  _248
REMARK   97  A    between atoms: _250  and  _252
REMARK   98  A    between atoms: _252  and  _253
REMARK   99  A    between atoms: _252  and  _255
REMARK  100  A    between atoms: _255  and  _256
REMARK  101  A    between atoms: _259  and  _261
REMARK  102  A    between atoms: _261  and  _262
REMARK  103  A    between atoms: _261  and  _264
REMARK  104  A    between atoms: _264  and  _265
REMARK  105  A    between atoms: _270  and  _272
REMARK  106  A    between atoms: _272  and  _273
REMARK  107  A    between atoms: _272  and  _275
REMARK  108  A    between atoms: _275  and  _276
REMARK  109  A    between atoms: _281  and  _283
REMARK  110  A    between atoms: _283  and  _284
REMARK  111  A    between atoms: _283  and  _286
REMARK  112  A    between atoms: _286  and  _287
REMARK  113  A    between atoms: _290  and  _292
REMARK  114  A    between atoms: _292  and  _293
REMARK  115  A    between atoms: _292  and  _295
REMARK  116  A    between atoms: _298  and  _300
REMARK  117  A    between atoms: _300  and  _301
REMARK  118  A    between atoms: _300  and  _303
REMARK  119  A    between atoms: _303  and  _304
REMARK  120  A    between atoms: _307  and  _309
REMARK  121  A    between atoms: _309  and  _310
REMARK  122  A    between atoms: _309  and  _312
REMARK  123  A    between atoms: _312  and  _313
REMARK  124  A    between atoms: _313  and  _314
REMARK  125  A    between atoms: _317  and  _319
REMARK  126  A    between atoms: _319  and  _320
REMARK  127  A    between atoms: _323  and  _325
REMARK  128  A    between atoms: _325  and  _326
REMARK  129  A    between atoms: _325  and  _328
REMARK  130  A    between atoms: _328  and  _329
REMARK  131  A    between atoms: _332  and  _334
REMARK  132  A    between atoms: _334  and  _335
REMARK  133  A    between atoms: _334  and  _337
REMARK  134  A    between atoms: _337  and  _338
REMARK  135  A    between atoms: _338  and  _339
REMARK  136  A    between atoms: _342  and  _344
REMARK  137  A    between atoms: _344  and  _345
REMARK  138  A    between atoms: _344  and  _347
REMARK  139  A    between atoms: _347  and  _348
REMARK  140  A    between atoms: _348  and  _349
REMARK  141  A    between atoms: _349  and  _350
REMARK  142  A    between atoms: _359  and  _361
REMARK  143  A    between atoms: _361  and  _362
REMARK  144  A    between atoms: _361  and  _364
REMARK  145  A    between atoms: _364  and  _365
REMARK  146  A    between atoms: _375  and  _377
REMARK  147  A    between atoms: _377  and  _378
REMARK  148  A    between atoms: _377  and  _380
REMARK  149  A    between atoms: _380  and  _381
REMARK  150  A    between atoms: _381  and  _382
REMARK  151  A    between atoms: _384  and  _386
REMARK  152  A    between atoms: _386  and  _387
REMARK  153  A    between atoms: _390  and  _392
REMARK  154  A    between atoms: _392  and  _393
REMARK  155  A    between atoms: _392  and  _395
REMARK  156  A    between atoms: _395  and  _396
REMARK  157  A    between atoms: _401  and  _403
REMARK  158  A    between atoms: _403  and  _404
REMARK  159  A    between atoms: _406  and  _408
REMARK  160  A    between atoms: _408  and  _409
REMARK  161  A    between atoms: _408  and  _411
REMARK  162  A    between atoms: _414  and  _416
REMARK  163  A    between atoms: _416  and  _417
REMARK  164  A    between atoms: _420  and  _422
REMARK  165  A    between atoms: _422  and  _423
REMARK  166  A    between atoms: _422  and  _425
REMARK  167  A    between atoms: _425  and  _426
REMARK  168  A    between atoms: _431  and  _433
REMARK  169  A    between atoms: _433  and  _434
REMARK  170  A    between atoms: _433  and  _436
REMARK  171  A    between atoms: _436  and  _437
REMARK  172  A    between atoms: _437  and  _438
REMARK  173  A    between atoms: _438  and  _439
REMARK  174  A    between atoms: _439  and  _440
REMARK  175  A    between atoms: _444  and  _446
REMARK  176  A    between atoms: _446  and  _447
REMARK  177  A    between atoms: _446  and  _449
REMARK  178  A    between atoms: _449  and  _450
REMARK  179  A    between atoms: _453  and  _455
REMARK  180  A    between atoms: _455  and  _456
REMARK  181  A    between atoms: _455  and  _458
REMARK  182  A    between atoms: _458  and  _459
REMARK  183  A    between atoms: _464  and  _466
REMARK  184  A    between atoms: _466  and  _467
REMARK  185  A    between atoms: _469  and  _471
REMARK  186  A    between atoms: _471  and  _472
REMARK  187  A    between atoms: _471  and  _474
REMARK  188  A    between atoms: _474  and  _475
REMARK  189  A    between atoms: _475  and  _476
REMARK  190  A    between atoms: _476  and  _477
REMARK  191  A    between atoms: _477  and  _478
REMARK  192  A    between atoms: _482  and  _484
REMARK  193  A    between atoms: _484  and  _485
REMARK  194  A    between atoms: _484  and  _487
REMARK  195  A    between atoms: _487  and  _488
REMARK  196  A    between atoms: _488  and  _489
REMARK  197  A    between atoms: _489  and  _490
REMARK  198  A    between atoms: _499  and  _501
REMARK  199  A    between atoms: _501  and  _502
REMARK  200  A    between atoms: _501  and  _504
REMARK  201  A    between atoms: _504  and  _505
REMARK  202  A    between atoms: _510  and  _511
REMARK  203  A    between atoms: _513  and  _515
REMARK  204  A    between atoms: _515  and  _516
REMARK  205  A    between atoms: _515  and  _518
REMARK  206  A    between atoms: _518  and  _519
REMARK  207  A    between atoms: _519  and  _520
REMARK  208  A    between atoms: _520  and  _521
REMARK  209  A    between atoms: _521  and  _522
REMARK  210  A    between atoms: _526  and  _528
REMARK  211  A    between atoms: _528  and  _529
REMARK  212  A    between atoms: _528  and  _531
REMARK  213  A    between atoms: _531  and  _532
REMARK  214  A    between atoms: _534  and  _536
REMARK  215  A    between atoms: _536  and  _537
REMARK  216  A    between atoms: _536  and  _539
REMARK  217  A    between atoms: _539  and  _540
REMARK  218  A    between atoms: _543  and  _545
REMARK  219  A    between atoms: _545  and  _546
REMARK  220  A    between atoms: _545  and  _548
REMARK  221  A    between atoms: _548  and  _549
REMARK  222  A    between atoms: _549  and  _550
REMARK  223  A    between atoms: _553  and  _555
REMARK  224  A    between atoms: _555  and  _556
REMARK  225  A    between atoms: _559  and  _561
REMARK  226  A    between atoms: _561  and  _562
REMARK  227  A    between atoms: _561  and  _564
REMARK  228  A    between atoms: _564  and  _565
REMARK  229  A    between atoms: _567  and  _569
REMARK  230  A    between atoms: _569  and  _570
REMARK  231  A    between atoms: _572  and  _574
REMARK  232  A    between atoms: _574  and  _575
REMARK  233  A    between atoms: _574  and  _577
REMARK  234  A    between atoms: _577  and  _578
REMARK  235  A    between atoms: _581  and  _583
REMARK  236  A    between atoms: _583  and  _584
REMARK  237  A    between atoms: _586  and  _588
REMARK  238  A    between atoms: _588  and  _589
REMARK  239  A    between atoms: _588  and  _591
REMARK  240  A    between atoms: _591  and  _592
REMARK  241  A    between atoms: _597  and  _599
REMARK  242  A    between atoms: _599  and  _600
REMARK  243  A    between atoms: _599  and  _602
REMARK  244  A    between atoms: _602  and  _603
REMARK  245  A    between atoms: _603  and  _604
REMARK  246  A    between atoms: _611  and  _612
REMARK  247  A    between atoms: _612  and  _628
REMARK  248  A    between atoms: _613  and  _615
REMARK  249  A    between atoms: _615  and  _616
REMARK  250  A    between atoms: _616  and  _617
REMARK  251  A    between atoms: _621  and  _623
REMARK  252  A    between atoms: _623  and  _624
REMARK  253  A    between atoms: _623  and  _631
REMARK  254  A    between atoms: _624  and  _625
REMARK  255  A    between atoms: _625  and  _626
REMARK  256  A    between atoms: _626  and  _627
REMARK  257  A    between atoms: _627  and  _628
REMARK  258  A    between atoms: _633  and  _635
REMARK  259  A    between atoms: _635  and  _636
REMARK  260  A    between atoms: _635  and  _638
REMARK  261  A    between atoms: _638  and  _639
REMARK  262  A    between atoms: _642  and  _644
REMARK  263  A    between atoms: _644  and  _645
REMARK  264  A    between atoms: _647  and  _649
REMARK  265  A    between atoms: _649  and  _650
REMARK  266  A    between atoms: _653  and  _655
REMARK  267  A    between atoms: _655  and  _656
REMARK  268  A    between atoms: _655  and  _658
REMARK  269  A    between atoms: _658  and  _659
REMARK  270  A    between atoms: _664  and  _665
REMARK                            x       y       z     vdW  Elec       q    Type
REMARK                         _______ _______ _______ _____ _____    ______ ____
ROOT
ATOM      1  CA  GLU A   1      41.389  21.322  44.175  0.00  0.00    +0.134 C 
ENDROOT
BRANCH   1   2
ATOM      2  N   GLU A   1      40.948  22.434  45.004  0.00  0.00    -0.239 NA
ATOM      3  H   GLU A   1      41.413  23.359  44.910  0.00  0.00    +0.142 HD
ENDBRANCH   1   2
BRANCH   1   4
ATOM      4  C   GLU A   1      42.070  20.263  44.997  0.00  0.00    +0.224 C 
ATOM      5  O   GLU A   1      41.834  19.044  44.795  0.00  0.00    -0.287 OA
ENDBRANCH   1   4
BRANCH   1   6
ATOM      6  CB  GLU A   1      42.322  21.801  43.053  0.00  0.00    +0.037 C 
BRANCH   6   7
ATOM      7  CG  GLU A   1      41.542  22.571  41.990  0.00  0.00    +0.116 C 
BRANCH   7   8
ATOM      8  CD  GLU A   1      42.397  23.114  40.880  0.00  0.00    +0.365 C 
ATOM      9  OE2 GLU A   1      43.628  22.966  40.948  0.00  0.00    -0.246 OA
ATOM     10  OE1 GLU A   1      41.831  23.681  39.921  0.00  0.00    -0.246 OA
ENDBRANCH   7   8
ENDBRANCH   6   7
ENDBRANCH   1   6
TORSDOF 5
REMARK  Name = ../refined-set-2016/4el0/4el0_pocket.pdb
REMARK  270 active torsions:
REMARK  status: ('A' for Active; 'I' for Inactive)
REMARK    1  A    between atoms: _1  and  _3
REMARK    2  A    between atoms: _3  and  _4
REMARK    3  A    between atoms: _3  and  _6
REMARK    4  A    between atoms: _6  and  _7
REMARK    5  A    between atoms: _12  and  _13
REMARK    6  A    between atoms: _15  and  _17
REMARK    7  A    between atoms: _17  and  _18
REMARK    8  A    between atoms: _17  and  _20
REMARK    9  A    between atoms: _20  and  _21
REMARK   10  A    between atoms: _21  and  _22
REMARK   11  A    between atoms: _25  and  _27
REMARK   12  A    between atoms: _27  and  _28
REMARK   13  A    between atoms: _27  and  _30
REMARK   14  A    between atoms: _30  and  _31
REMARK   15  A    between atoms: _36  and  _38
REMARK   16  A    between atoms: _38  and  _39
REMARK   17  A    between atoms: _41  and  _43
REMARK   18  A    between atoms: _43  and  _44
REMARK   19  A    between atoms: _46  and  _48
REMARK   20  A    between atoms: _48  and  _49
REMARK   21  A    between atoms: _48  and  _51
REMARK   22  A    between atoms: _51  and  _52
REMARK   23  A    between atoms: _55  and  _57
REMARK   24  A    between atoms: _57  and  _58
REMARK   25  A    between atoms: _60  and  _62
REMARK   26  A    between atoms: _62  and  _63
REMARK   27  A    between atoms: _62  and  _65
REMARK   28  A    between atoms: _66  and  _67
REMARK   29  A    between atoms: _67  and  _68
REMARK   30  A    between atoms: _77  and  _79
REMARK   31  A    between atoms: _79  and  _80
REMARK   32  A    between atoms: _79  and  _82
REMARK   33  A    between atoms: _82  and  _83
REMARK   34  A    between atoms: _86  and  _88
REMARK   35  A    between atoms: _88  and  _89
REMARK   36  A    between atoms: _92  and  _94
REMARK   37  A    between atoms: _94  and  _95
REMARK   38  A    between atoms: _94  and  _97
REMARK   39  A    between atoms: _97  and  _98
REMARK   40  A    between atoms: _104  and  _106
REMARK   41  A    between atoms: _106  and  _107
REMARK   42  A    between atoms: _106  and  _109
REMARK   43  A    between atoms: _109  and  _110
REMARK   44  A    between atoms: _115  and  _117
REMARK   45  A    between atoms: _117  and  _118
REMARK   46  A    between atoms: _117  and  _120
REMARK   47  A    between atoms: _120  and  _121
REMARK   48  A    between atoms: _124  and  _126
REMARK   49  A    between atoms: _126  and  _127
REMARK   50  A    between atoms: _126  and  _129
REMARK   51  A    between atoms: _129  and  _130
REMARK   52  A    between atoms: _135  and  _137
REMARK   53  A    between atoms: _137  and  _138
REMARK   54  A    between atoms: _137  and  _140
REMARK   55  A    between atoms: _140  and  _141
REMARK   56  A    between atoms: _147  and  _149
REMARK   57  A    between atoms: _149  and  _150
REMARK   58  A    between atoms: _149  and  _152
REMARK   59  A    between atoms: _152  and  _153
REMARK   60  A    between atoms: _159  and  _161
REMARK   61  A    between atoms: _161  and  _162
REMARK   62  A    between atoms: _161  and  _164
REMARK   63  A    between atoms: _164  and  _165
REMARK   64  A    between atoms: _165  and  _166
REMARK   65  A    between atoms: _169  and  _171
REMARK   66  A    between atoms: _171  and  _172
REMARK   67  A    between atoms: _171  and  _174
REMARK   68  A    between atoms: _174  and  _175
REMARK   69  A    between atoms: _175  and  _176
REMARK   70  A    between atoms: _176  and  _177
REMARK   71  A    between atoms: _186  and  _188
REMARK   72  A    between atoms: _188  and  _189
REMARK   73  A    between atoms: _188  and  _191
REMARK   74  A    between atoms: _191  and  _192
REMARK   75  A    between atoms: _192  and  _193
REMARK   76  A    between atoms: _196  and  _198
REMARK   77  A    between atoms: _198  and  _199
REMARK   78  A    between atoms: _198  and  _201
REMARK   79  A    between atoms: _201  and  _202
REMARK   80  A    between atoms: _207  and  _209
REMARK   81  A    between atoms: _209  and  _210
REMARK   82  A    between atoms: _209  and  _212
REMARK   83  A    between atoms: _212  and  _213
REMARK   84  A    between atoms: _216  and  _218
REMARK   85  A    between atoms: _218  and  _219
REMARK   86  A    between atoms: _218  and  _221
REMARK   87  A    between atoms: _221  and  _222
REMARK   88  A    between atoms: _225  and  _227
REMARK   89  A    between atoms: _227  and  _228
REMARK   90  A    between atoms: _227  and  _230
REMARK   91  A    between atoms: _230  and  _231
REMARK   92  A    between atoms: _236  and  _238
REMARK   93  A    between atoms: _238  and  _239
REMARK   94  A    between atoms: _238  and  _241
REMARK   95  A    between atoms: _241  and  _242
REMARK   96  A    between atoms: _247  and  _248
REMARK   97  A    between atoms: _250  and  _252
REMARK   98  A    between atoms: _252  and  _253
REMARK   99  A    between atoms: _252  and  _255
REMARK  100  A    between atoms: _255  and  _256
REMARK  101  A    between atoms: _259  and  _261
REMARK  102  A    between atoms: _261  and  _262
REMARK  103  A    between atoms: _261  and  _264
REMARK  104  A    between atoms: _264  and  _265
REMARK  105  A    between atoms: _270  and  _272
REMARK  106  A    between atoms: _272  and  _273
REMARK  107  A    between atoms: _272  and  _275
REMARK  108  A    between atoms: _275  and  _276
REMARK  109  A    between atoms: _281  and  _283
REMARK  110  A    between atoms: _283  and  _284
REMARK  111  A    between atoms: _283  and  _286
REMARK  112  A    between atoms: _286  and  _287
REMARK  113  A    between atoms: _290  and  _292
REMARK  114  A    between atoms: _292  and  _293
REMARK  115  A    between atoms: _292  and  _295
REMARK  116  A    between atoms: _298  and  _300
REMARK  117  A    between atoms: _300  and  _301
REMARK  118  A    between atoms: _300  and  _303
REMARK  119  A    between atoms: _303  and  _304
REMARK  120  A    between atoms: _307  and  _309
REMARK  121  A    between atoms: _309  and  _310
REMARK  122  A    between atoms: _309  and  _312
REMARK  123  A    between atoms: _312  and  _313
REMARK  124  A    between atoms: _313  and  _314
REMARK  125  A    between atoms: _317  and  _319
REMARK  126  A    between atoms: _319  and  _320
REMARK  127  A    between atoms: _323  and  _325
REMARK  128  A    between atoms: _325  and  _326
REMARK  129  A    between atoms: _325  and  _328
REMARK  130  A    between atoms: _328  and  _329
REMARK  131  A    between atoms: _332  and  _334
REMARK  132  A    between atoms: _334  and  _335
REMARK  133  A    between atoms: _334  and  _337
REMARK  134  A    between atoms: _337  and  _338
REMARK  135  A    between atoms: _338  and  _339
REMARK  136  A    between atoms: _342  and  _344
REMARK  137  A    between atoms: _344  and  _345
REMARK  138  A    between atoms: _344  and  _347
REMARK  139  A    between atoms: _347  and  _348
REMARK  140  A    between atoms: _348  and  _349
REMARK  141  A    between atoms: _349  and  _350
REMARK  142  A    between atoms: _359  and  _361
REMARK  143  A    between atoms: _361  and  _362
REMARK  144  A    between atoms: _361  and  _364
REMARK  145  A    between atoms: _364  and  _365
REMARK  146  A    between atoms: _375  and  _377
REMARK  147  A    between atoms: _377  and  _378
REMARK  148  A    between atoms: _377  and  _380
REMARK  149  A    between atoms: _380  and  _381
REMARK  150  A    between atoms: _381  and  _382
REMARK  151  A    between atoms: _384  and  _386
REMARK  152  A    between atoms: _386  and  _387
REMARK  153  A    between atoms: _390  and  _392
REMARK  154  A    between atoms: _392  and  _393
REMARK  155  A    between atoms: _392  and  _395
REMARK  156  A    between atoms: _395  and  _396
REMARK  157  A    between atoms: _401  and  _403
REMARK  158  A    between atoms: _403  and  _404
REMARK  159  A    between atoms: _406  and  _408
REMARK  160  A    between atoms: _408  and  _409
REMARK  161  A    between atoms: _408  and  _411
REMARK  162  A    between atoms: _414  and  _416
REMARK  163  A    between atoms: _416  and  _417
REMARK  164  A    between atoms: _420  and  _422
REMARK  165  A    between atoms: _422  and  _423
REMARK  166  A    between atoms: _422  and  _425
REMARK  167  A    between atoms: _425  and  _426
REMARK  168  A    between atoms: _431  and  _433
REMARK  169  A    between atoms: _433  and  _434
REMARK  170  A    between atoms: _433  and  _436
REMARK  171  A    between atoms: _436  and  _437
REMARK  172  A    between atoms: _437  and  _438
REMARK  173  A    between atoms: _438  and  _439
REMARK  174  A    between atoms: _439  and  _440
REMARK  175  A    between atoms: _444  and  _446
REMARK  176  A    between atoms: _446  and  _447
REMARK  177  A    between atoms: _446  and  _449
REMARK  178  A    between atoms: _449  and  _450
REMARK  179  A    between atoms: _453  and  _455
REMARK  180  A    between atoms: _455  and  _456
REMARK  181  A    between atoms: _455  and  _458
REMARK  182  A    between atoms: _458  and  _459
REMARK  183  A    between atoms: _464  and  _466
REMARK  184  A    between atoms: _466  and  _467
REMARK  185  A    between atoms: _469  and  _471
REMARK  186  A    between atoms: _471  and  _472
REMARK  187  A    between atoms: _471  and  _474
REMARK  188  A    between atoms: _474  and  _475
REMARK  189  A    between atoms: _475  and  _476
REMARK  190  A    between atoms: _476  and  _477
REMARK  191  A    between atoms: _477  and  _478
REMARK  192  A    between atoms: _482  and  _484
REMARK  193  A    between atoms: _484  and  _485
REMARK  194  A    between atoms: _484  and  _487
REMARK  195  A    between atoms: _487  and  _488
REMARK  196  A    between atoms: _488  and  _489
REMARK  197  A    between atoms: _489  and  _490
REMARK  198  A    between atoms: _499  and  _501
REMARK  199  A    between atoms: _501  and  _502
REMARK  200  A    between atoms: _501  and  _504
REMARK  201  A    between atoms: _504  and  _505
REMARK  202  A    between atoms: _510  and  _511
REMARK  203  A    between atoms: _513  and  _515
REMARK  204  A    between atoms: _515  and  _516
REMARK  205  A    between atoms: _515  and  _518
REMARK  206  A    between atoms: _518  and  _519
REMARK  207  A    between atoms: _519  and  _520
REMARK  208  A    between atoms: _520  and  _521
REMARK  209  A    between atoms: _521  and  _522
REMARK  210  A    between atoms: _526  and  _528
REMARK  211  A    between atoms: _528  and  _529
REMARK  212  A    between atoms: _528  and  _531
REMARK  213  A    between atoms: _531  and  _532
REMARK  214  A    between atoms: _534  and  _536
REMARK  215  A    between atoms: _536  and  _537
REMARK  216  A    between atoms: _536  and  _539
REMARK  217  A    between atoms: _539  and  _540
REMARK  218  A    between atoms: _543  and  _545
REMARK  219  A    between atoms: _545  and  _546
REMARK  220  A    between atoms: _545  and  _548
REMARK  221  A    between atoms: _548  and  _549
REMARK  222  A    between atoms: _549  and  _550
REMARK  223  A    between atoms: _553  and  _555
REMARK  224  A    between atoms: _555  and  _556
REMARK  225  A    between atoms: _559  and  _561
REMARK  226  A    between atoms: _561  and  _562
REMARK  227  A    between atoms: _561  and  _564
REMARK  228  A    between atoms: _564  and  _565
REMARK  229  A    between atoms: _567  and  _569
REMARK  230  A    between atoms: _569  and  _570
REMARK  231  A    between atoms: _572  and  _574
REMARK  232  A    between atoms: _574  and  _575
REMARK  233  A    between atoms: _574  and  _577
REMARK  234  A    between atoms: _577  and  _578
REMARK  235  A    between atoms: _581  and  _583
REMARK  236  A    between atoms: _583  and  _584
REMARK  237  A    between atoms: _586  and  _588
REMARK  238  A    between atoms: _588  and  _589
REMARK  239  A    between atoms: _588  and  _591
REMARK  240  A    between atoms: _591  and  _592
REMARK  241  A    between atoms: _597  and  _599
REMARK  242  A    between atoms: _599  and  _600
REMARK  243  A    between atoms: _599  and  _602
REMARK  244  A    between atoms: _602  and  _603
REMARK  245  A    between atoms: _603  and  _604
REMARK  246  A    between atoms: _611  and  _612
REMARK  247  A    between atoms: _612  and  _628
REMARK  248  A    between atoms: _613  and  _615
REMARK  249  A    between atoms: _615  and  _616
REMARK  250  A    between atoms: _616  and  _617
REMARK  251  A    between atoms: _621  and  _623
REMARK  252  A    between atoms: _623  and  _624
REMARK  253  A    between atoms: _623  and  _631
REMARK  254  A    between atoms: _624  and  _625
REMARK  255  A    between atoms: _625  and  _626
REMARK  256  A    between atoms: _626  and  _627
REMARK  257  A    between atoms: _627  and  _628
REMARK  258  A    between atoms: _633  and  _635
REMARK  259  A    between atoms: _635  and  _636
REMARK  260  A    between atoms: _635  and  _638
REMARK  261  A    between atoms: _638  and  _639
REMARK  262  A    between atoms: _642  and  _644
REMARK  263  A    between atoms: _644  and  _645
REMARK  264  A    between atoms: _647  and  _649
REMARK  265  A    between atoms: _649  and  _650
REMARK  266  A    between atoms: _653  and  _655
REMARK  267  A    between atoms: _655  and  _656
REMARK  268  A    between atoms: _655  and  _658
REMARK  269  A    between atoms: _658  and  _659
REMARK  270  A    between atoms: _664  and  _665
REMARK                            x       y       z     vdW  Elec       q    Type
REMARK                         _______ _______ _______ _____ _____    ______ ____
ROOT
ATOM      1  C   ASP A   2      41.119  18.198  34.079  0.00  0.00    +0.241 C 
ATOM      2  O   ASP A   2      41.203  17.222  34.832  0.00  0.00    -0.273 OA
ATOM      3  N   THR A   3      41.924  19.266  34.180  0.00  0.00    -0.295 N 
ATOM      4  H   THR A   3      41.734  20.102  33.591  0.00  0.00    +0.150 HD
ENDROOT
BRANCH   1   5
ATOM      5  CA  ASP A   2      40.016  18.230  32.977  0.00  0.00    +0.160 C 
BRANCH   5   8
ATOM      6  C   ASN A   1      38.237  17.161  34.253  0.00  0.00    +0.239 C 
ATOM      7  O   ASN A   1      38.176  18.091  35.081  0.00  0.00    -0.274 OA
ATOM      8  N   ASP A   2      39.053  17.182  33.200  0.00  0.00    -0.297 N 
ATOM      9  H   ASP A   2      38.992  16.408  32.508  0.00  0.00    +0.150 HD
BRANCH   6  10
ATOM     10  CA  ASN A   1      37.428  15.870  34.441  0.00  0.00    +0.154 C 
BRANCH  10  11
ATOM     11  N   ASN A   1      38.269  15.009  35.257  0.00  0.00    -0.238 NA
ATOM     12  H   ASN A   1      38.107  14.990  36.284  0.00  0.00    +0.142 HD
ENDBRANCH  10  11
BRANCH  10  13
ATOM     13  CB  ASN A   1      36.051  16.121  35.163  0.00  0.00    +0.111 C 
BRANCH  13  14
ATOM     14  CG  ASN A   1      34.989  16.723  34.210  0.00  0.00    +0.221 C 
ATOM     15  ND2 ASN A   1      33.930  17.345  34.751  0.00  0.00    -0.329 N 
ATOM     16 HD21 ASN A   1      33.828  17.395  35.785  0.00  0.00    +0.145 HD
ATOM     17 HD22 ASN A   1      33.211  17.777  34.136  0.00  0.00    +0.145 HD
ATOM     18  OD1 ASN A   1      35.150  16.640  32.995  0.00  0.00    -0.275 OA
ENDBRANCH  13  14
ENDBRANCH  10  13
ENDBRANCH   6  10
ENDBRANCH   5   8
BRANCH   5  19
ATOM     19  CB  ASP A   2      39.389  19.626  32.737  0.00  0.00    +0.143 C 
BRANCH  19  20
ATOM     20  CG  ASP A   2      40.180  20.395  31.660  0.00  0.00    +0.367 C 
ATOM     21  OD2 ASP A   2      41.387  20.489  31.942  0.00  0.00    -0.246 OA
ATOM     22  OD1 ASP A   2      39.732  20.690  30.486  0.00  0.00    -0.246 OA
ENDBRANCH  19  20
ENDBRANCH   5  19
ENDBRANCH   1   5
BRANCH   3  23
ATOM     23  CA  THR A   3      43.050  19.284  35.089  0.00  0.00    +0.176 C 
BRANCH  23  24
ATOM     24  C   THR A   3      42.631  19.768  36.504  0.00  0.00    +0.243 C 
ATOM     25  O   THR A   3      43.504  19.886  37.385  0.00  0.00    -0.273 OA
ATOM     26  N   HIS A   4      41.347  20.089  36.732  0.00  0.00    -0.298 N 
ATOM     27  H   HIS A   4      40.636  20.022  35.976  0.00  0.00    +0.150 HD
BRANCH  26  28
ATOM     28  CA  HIS A   4      40.976  20.540  38.087  0.00  0.00    +0.143 C 
BRANCH  28  29
ATOM     29  C   HIS A   4      41.425  19.583  39.206  0.00  0.00    +0.227 C 
ATOM     30  O   HIS A   4      41.825  20.039  40.269  0.00  0.00    -0.286 OA
ENDBRANCH  28  29
BRANCH  28  31
ATOM     31  CB  HIS A   4      39.476  20.901  38.255  0.00  0.00    +0.075 C 
BRANCH  31  32
ATOM     32  CG  HIS A   4      39.004  21.966  37.321  0.00  0.00    +0.082 A 
ATOM     33  ND1 HIS A   4      37.720  22.000  36.822  0.00  0.00    -0.227 NA
ATOM     34  CE1 HIS A   4      37.596  23.020  35.987  0.00  0.00    +0.199 A 
ATOM     35  NE2 HIS A   4      38.772  23.613  35.883  0.00  0.00    -0.221 NA
ATOM     36  CD2 HIS A   4      39.669  22.974  36.706  0.00  0.00    +0.115 A 
ENDBRANCH  31  32
ENDBRANCH  28  31
ENDBRANCH  26  28
ENDBRANCH  23  24
BRANCH  23  37
ATOM     37  CB  THR A   3      44.182  20.259  34.562  0.00  0.00    +0.137 C 
ATOM     38  CG2 THR A   3      44.750  19.813  33.209  0.00  0.00    +0.034 C 
BRANCH  37  39
ATOM     39  OG1 THR A   3      43.639  21.588  34.414  0.00  0.00    -0.382 OA
ATOM     40  HG1 THR A   3      43.308  21.908  35.291  0.00  0.00    +0.210 HD
ENDBRANCH  37  39
ENDBRANCH  23  37
ENDBRANCH   3  23
TORSDOF 16
REMARK  Name = ../refined-set-2016/4el0/4el0_pocket.pdb
REMARK  270 active torsions:
REMARK  status: ('A' for Active; 'I' for Inactive)
REMARK    1  A    between atoms: _1  and  _3
REMARK    2  A    between atoms: _3  and  _4
REMARK    3  A    between atoms: _3  and  _6
REMARK    4  A    between atoms: _6  and  _7
REMARK    5  A    between atoms: _12  and  _13
REMARK    6  A    between atoms: _15  and  _17
REMARK    7  A    between atoms: _17  and  _18
REMARK    8  A    between atoms: _17  and  _20
REMARK    9  A    between atoms: _20  and  _21
REMARK   10  A    between atoms: _21  and  _22
REMARK   11  A    between atoms: _25  and  _27
REMARK   12  A    between atoms: _27  and  _28
REMARK   13  A    between atoms: _27  and  _30
REMARK   14  A    between atoms: _30  and  _31
REMARK   15  A    between atoms: _36  and  _38
REMARK   16  A    between atoms: _38  and  _39
REMARK   17  A    between atoms: _41  and  _43
REMARK   18  A    between atoms: _43  and  _44
REMARK   19  A    between atoms: _46  and  _48
REMARK   20  A    between atoms: _48  and  _49
REMARK   21  A    between atoms: _48  and  _51
REMARK   22  A    between atoms: _51  and  _52
REMARK   23  A    between atoms: _55  and  _57
REMARK   24  A    between atoms: _57  and  _58
REMARK   25  A    between atoms: _60  and  _62
REMARK   26  A    between atoms: _62  and  _63
REMARK   27  A    between atoms: _62  and  _65
REMARK   28  A    between atoms: _66  and  _67
REMARK   29  A    between atoms: _67  and  _68
REMARK   30  A    between atoms: _77  and  _79
REMARK   31  A    between atoms: _79  and  _80
REMARK   32  A    between atoms: _79  and  _82
REMARK   33  A    between atoms: _82  and  _83
REMARK   34  A    between atoms: _86  and  _88
REMARK   35  A    between atoms: _88  and  _89
REMARK   36  A    between atoms: _92  and  _94
REMARK   37  A    between atoms: _94  and  _95
REMARK   38  A    between atoms: _94  and  _97
REMARK   39  A    between atoms: _97  and  _98
REMARK   40  A    between atoms: _104  and  _106
REMARK   41  A    between atoms: _106  and  _107
REMARK   42  A    between atoms: _106  and  _109
REMARK   43  A    between atoms: _109  and  _110
REMARK   44  A    between atoms: _115  and  _117
REMARK   45  A    between atoms: _117  and  _118
REMARK   46  A    between atoms: _117  and  _120
REMARK   47  A    between atoms: _120  and  _121
REMARK   48  A    between atoms: _124  and  _126
REMARK   49  A    between atoms: _126  and  _127
REMARK   50  A    between atoms: _126  and  _129
REMARK   51  A    between atoms: _129  and  _130
REMARK   52  A    between atoms: _135  and  _137
REMARK   53  A    between atoms: _137  and  _138
REMARK   54  A    between atoms: _137  and  _140
REMARK   55  A    between atoms: _140  and  _141
REMARK   56  A    between atoms: _147  and  _149
REMARK   57  A    between atoms: _149  and  _150
REMARK   58  A    between atoms: _149  and  _152
REMARK   59  A    between atoms: _152  and  _153
REMARK   60  A    between atoms: _159  and  _161
REMARK   61  A    between atoms: _161  and  _162
REMARK   62  A    between atoms: _161  and  _164
REMARK   63  A    between atoms: _164  and  _165
REMARK   64  A    between atoms: _165  and  _166
REMARK   65  A    between atoms: _169  and  _171
REMARK   66  A    between atoms: _171  and  _172
REMARK   67  A    between atoms: _171  and  _174
REMARK   68  A    between atoms: _174  and  _175
REMARK   69  A    between atoms: _175  and  _176
REMARK   70  A    between atoms: _176  and  _177
REMARK   71  A    between atoms: _186  and  _188
REMARK   72  A    between atoms: _188  and  _189
REMARK   73  A    between atoms: _188  and  _191
REMARK   74  A    between atoms: _191  and  _192
REMARK   75  A    between atoms: _192  and  _193
REMARK   76  A    between atoms: _196  and  _198
REMARK   77  A    between atoms: _198  and  _199
REMARK   78  A    between atoms: _198  and  _201
REMARK   79  A    between atoms: _201  and  _202
REMARK   80  A    between atoms: _207  and  _209
REMARK   81  A    between atoms: _209  and  _210
REMARK   82  A    between atoms: _209  and  _212
REMARK   83  A    between atoms: _212  and  _213
REMARK   84  A    between atoms: _216  and  _218
REMARK   85  A    between atoms: _218  and  _219
REMARK   86  A    between atoms: _218  and  _221
REMARK   87  A    between atoms: _221  and  _222
REMARK   88  A    between atoms: _225  and  _227
REMARK   89  A    between atoms: _227  and  _228
REMARK   90  A    between atoms: _227  and  _230
REMARK   91  A    between atoms: _230  and  _231
REMARK   92  A    between atoms: _236  and  _238
REMARK   93  A    between atoms: _238  and  _239
REMARK   94  A    between atoms: _238  and  _241
REMARK   95  A    between atoms: _241  and  _242
REMARK   96  A    between atoms: _247  and  _248
REMARK   97  A    between atoms: _250  and  _252
REMARK   98  A    between atoms: _252  and  _253
REMARK   99  A    between atoms: _252  and  _255
REMARK  100  A    between atoms: _255  and  _256
REMARK  101  A    between atoms: _259  and  _261
REMARK  102  A    between atoms: _261  and  _262
REMARK  103  A    between atoms: _261  and  _264
REMARK  104  A    between atoms: _264  and  _265
REMARK  105  A    between atoms: _270  and  _272
REMARK  106  A    between atoms: _272  and  _273
REMARK  107  A    between atoms: _272  and  _275
REMARK  108  A    between atoms: _275  and  _276
REMARK  109  A    between atoms: _281  and  _283
REMARK  110  A    between atoms: _283  and  _284
REMARK  111  A    between atoms: _283  and  _286
REMARK  112  A    between atoms: _286  and  _287
REMARK  113  A    between atoms: _290  and  _292
REMARK  114  A    between atoms: _292  and  _293
REMARK  115  A    between atoms: _292  and  _295
REMARK  116  A    between atoms: _298  and  _300
REMARK  117  A    between atoms: _300  and  _301
REMARK  118  A    between atoms: _300  and  _303
REMARK  119  A    between atoms: _303  and  _304
REMARK  120  A    between atoms: _307  and  _309
REMARK  121  A    between atoms: _309  and  _310
REMARK  122  A    between atoms: _309  and  _312
REMARK  123  A    between atoms: _312  and  _313
REMARK  124  A    between atoms: _313  and  _314
REMARK  125  A    between atoms: _317  and  _319
REMARK  126  A    between atoms: _319  and  _320
REMARK  127  A    between atoms: _323  and  _325
REMARK  128  A    between atoms: _325  and  _326
REMARK  129  A    between atoms: _325  and  _328
REMARK  130  A    between atoms: _328  and  _329
REMARK  131  A    between atoms: _332  and  _334
REMARK  132  A    between atoms: _334  and  _335
REMARK  133  A    between atoms: _334  and  _337
REMARK  134  A    between atoms: _337  and  _338
REMARK  135  A    between atoms: _338  and  _339
REMARK  136  A    between atoms: _342  and  _344
REMARK  137  A    between atoms: _344  and  _345
REMARK  138  A    between atoms: _344  and  _347
REMARK  139  A    between atoms: _347  and  _348
REMARK  140  A    between atoms: _348  and  _349
REMARK  141  A    between atoms: _349  and  _350
REMARK  142  A    between atoms: _359  and  _361
REMARK  143  A    between atoms: _361  and  _362
REMARK  144  A    between atoms: _361  and  _364
REMARK  145  A    between atoms: _364  and  _365
REMARK  146  A    between atoms: _375  and  _377
REMARK  147  A    between atoms: _377  and  _378
REMARK  148  A    between atoms: _377  and  _380
REMARK  149  A    between atoms: _380  and  _381
REMARK  150  A    between atoms: _381  and  _382
REMARK  151  A    between atoms: _384  and  _386
REMARK  152  A    between atoms: _386  and  _387
REMARK  153  A    between atoms: _390  and  _392
REMARK  154  A    between atoms: _392  and  _393
REMARK  155  A    between atoms: _392  and  _395
REMARK  156  A    between atoms: _395  and  _396
REMARK  157  A    between atoms: _401  and  _403
REMARK  158  A    between atoms: _403  and  _404
REMARK  159  A    between atoms: _406  and  _408
REMARK  160  A    between atoms: _408  and  _409
REMARK  161  A    between atoms: _408  and  _411
REMARK  162  A    between atoms: _414  and  _416
REMARK  163  A    between atoms: _416  and  _417
REMARK  164  A    between atoms: _420  and  _422
REMARK  165  A    between atoms: _422  and  _423
REMARK  166  A    between atoms: _422  and  _425
REMARK  167  A    between atoms: _425  and  _426
REMARK  168  A    between atoms: _431  and  _433
REMARK  169  A    between atoms: _433  and  _434
REMARK  170  A    between atoms: _433  and  _436
REMARK  171  A    between atoms: _436  and  _437
REMARK  172  A    between atoms: _437  and  _438
REMARK  173  A    between atoms: _438  and  _439
REMARK  174  A    between atoms: _439  and  _440
REMARK  175  A    between atoms: _444  and  _446
REMARK  176  A    between atoms: _446  and  _447
REMARK  177  A    between atoms: _446  and  _449
REMARK  178  A    between atoms: _449  and  _450
REMARK  179  A    between atoms: _453  and  _455
REMARK  180  A    between atoms: _455  and  _456
REMARK  181  A    between atoms: _455  and  _458
REMARK  182  A    between atoms: _458  and  _459
REMARK  183  A    between atoms: _464  and  _466
REMARK  184  A    between atoms: _466  and  _467
REMARK  185  A    between atoms: _469  and  _471
REMARK  186  A    between atoms: _471  and  _472
REMARK  187  A    between atoms: _471  and  _474
REMARK  188  A    between atoms: _474  and  _475
REMARK  189  A    between atoms: _475  and  _476
REMARK  190  A    between atoms: _476  and  _477
REMARK  191  A    between atoms: _477  and  _478
REMARK  192  A    between atoms: _482  and  _484
REMARK  193  A    between atoms: _484  and  _485
REMARK  194  A    between atoms: _484  and  _487
REMARK  195  A    between atoms: _487  and  _488
REMARK  196  A    between atoms: _488  and  _489
REMARK  197  A    between atoms: _489  and  _490
REMARK  198  A    between atoms: _499  and  _501
REMARK  199  A    between atoms: _501  and  _502
REMARK  200  A    between atoms: _501  and  _504
REMARK  201  A    between atoms: _504  and  _505
REMARK  202  A    between atoms: _510  and  _511
REMARK  203  A    between atoms: _513  and  _515
REMARK  204  A    between atoms: _515  and  _516
REMARK  205  A    between atoms: _515  and  _518
REMARK  206  A    between atoms: _518  and  _519
REMARK  207  A    between atoms: _519  and  _520
REMARK  208  A    between atoms: _520  and  _521
REMARK  209  A    between atoms: _521  and  _522
REMARK  210  A    between atoms: _526  and  _528
REMARK  211  A    between atoms: _528  and  _529
REMARK  212  A    between atoms: _528  and  _531
REMARK  213  A    between atoms: _531  and  _532
REMARK  214  A    between atoms: _534  and  _536
REMARK  215  A    between atoms: _536  and  _537
REMARK  216  A    between atoms: _536  and  _539
REMARK  217  A    between atoms: _539  and  _540
REMARK  218  A    between atoms: _543  and  _545
REMARK  219  A    between atoms: _545  and  _546
REMARK  220  A    between atoms: _545  and  _548
REMARK  221  A    between atoms: _548  and  _549
REMARK  222  A    between atoms: _549  and  _550
REMARK  223  A    between atoms: _553  and  _555
REMARK  224  A    between atoms: _555  and  _556
REMARK  225  A    between atoms: _559  and  _561
REMARK  226  A    between atoms: _561  and  _562
REMARK  227  A    between atoms: _561  and  _564
REMARK  228  A    between atoms: _564  and  _565
REMARK  229  A    between atoms: _567  and  _569
REMARK  230  A    between atoms: _569  and  _570
REMARK  231  A    between atoms: _572  and  _574
REMARK  232  A    between atoms: _574  and  _575
REMARK  233  A    between atoms: _574  and  _577
REMARK  234  A    between atoms: _577  and  _578
REMARK  235  A    between atoms: _581  and  _583
REMARK  236  A    between atoms: _583  and  _584
REMARK  237  A    between atoms: _586  and  _588
REMARK  238  A    between atoms: _588  and  _589
REMARK  239  A    between atoms: _588  and  _591
REMARK  240  A    between atoms: _591  and  _592
REMARK  241  A    between atoms: _597  and  _599
REMARK  242  A    between atoms: _599  and  _600
REMARK  243  A    between atoms: _599  and  _602
REMARK  244  A    between atoms: _602  and  _603
REMARK  245  A    between atoms: _603  and  _604
REMARK  246  A    between atoms: _611  and  _612
REMARK  247  A    between atoms: _612  and  _628
REMARK  248  A    between atoms: _613  and  _615
REMARK  249  A    between atoms: _615  and  _616
REMARK  250  A    between atoms: _616  and  _617
REMARK  251  A    between atoms: _621  and  _623
REMARK  252  A    between atoms: _623  and  _624
REMARK  253  A    between atoms: _623  and  _631
REMARK  254  A    between atoms: _624  and  _625
REMARK  255  A    between atoms: _625  and  _626
REMARK  256  A    between atoms: _626  and  _627
REMARK  257  A    between atoms: _627  and  _628
REMARK  258  A    between atoms: _633  and  _635
REMARK  259  A    between atoms: _635  and  _636
REMARK  260  A    between atoms: _635  and  _638
REMARK  261  A    between atoms: _638  and  _639
REMARK  262  A    between atoms: _642  and  _644
REMARK  263  A    between atoms: _644  and  _645
REMARK  264  A    between atoms: _647  and  _649
REMARK  265  A    between atoms: _649  and  _650
REMARK  266  A    between atoms: _653  and  _655
REMARK  267  A    between atoms: _655  and  _656
REMARK  268  A    between atoms: _655  and  _658
REMARK  269  A    between atoms: _658  and  _659
REMARK  270  A    between atoms: _664  and  _665
REMARK                            x       y       z     vdW  Elec       q    Type
REMARK                         _______ _______ _______ _____ _____    ______ ____
ROOT
ATOM      1  C   ASN A   3      39.528  18.224  27.439  0.00  0.00    +0.241 C 
ATOM      2  N   HIS A   4      39.211  19.455  27.817  0.00  0.00    -0.297 N 
ATOM      3  H   HIS A   4      39.829  19.987  28.463  0.00  0.00    +0.150 HD
ATOM      4  O   ASN A   3      38.865  17.587  26.576  0.00  0.00    -0.273 OA
ENDROOT
BRANCH   2   5
ATOM      5  CA  HIS A   4      37.975  20.051  27.308  0.00  0.00    +0.155 C 
BRANCH   5   6
ATOM      6  C   HIS A   4      38.158  21.401  26.582  0.00  0.00    +0.241 C 
ATOM      7  O   HIS A   4      37.178  22.091  26.326  0.00  0.00    -0.273 OA
ATOM      8  N   THR A   5      39.372  21.826  26.311  0.00  0.00    -0.295 N 
ATOM      9  H   THR A   5      40.200  21.253  26.572  0.00  0.00    +0.150 HD
BRANCH   8  10
ATOM     10  CA  THR A   5      39.547  23.114  25.639  0.00  0.00    +0.176 C 
BRANCH  10  11
ATOM     11  C   THR A   5      40.984  23.230  25.106  0.00  0.00    +0.243 C 
ATOM     12  O   THR A   5      41.890  22.556  25.593  0.00  0.00    -0.273 OA
ATOM     13  N   VAL A   6      41.156  24.068  24.099  0.00  0.00    -0.297 N 
ATOM     14  H   VAL A   6      40.335  24.537  23.666  0.00  0.00    +0.150 HD
BRANCH  13  15
ATOM     15  CA  VAL A   6      42.476  24.331  23.603  0.00  0.00    +0.149 C 
BRANCH  15  16
ATOM     16  C   VAL A   6      42.807  25.813  23.764  0.00  0.00    +0.241 C 
ATOM     17  N   LEU A   7      41.884  26.614  24.285  0.00  0.00    -0.298 N 
ATOM     18  H   LEU A   7      40.943  26.224  24.496  0.00  0.00    +0.150 HD
ATOM     19  O   VAL A   6      43.900  26.198  23.433  0.00  0.00    -0.273 OA
BRANCH  17  20
ATOM     20  CA  LEU A   7      42.144  28.028  24.573  0.00  0.00    +0.137 C 
BRANCH  20  21
ATOM     21  C   LEU A   7      43.288  28.164  25.570  0.00  0.00    +0.227 C 
ATOM     22  O   LEU A   7      43.232  27.596  26.650  0.00  0.00    -0.286 OA
ENDBRANCH  20  21
BRANCH  20  23
ATOM     23  CB  LEU A   7      40.888  28.695  25.120  0.00  0.00    +0.028 C 
BRANCH  23  24
ATOM     24  CG  LEU A   7      39.764  29.099  24.146  0.00  0.00    +0.002 C 
ATOM     25  CD2 LEU A   7      38.958  30.337  24.759  0.00  0.00    +0.000 C 
ATOM     26  CD1 LEU A   7      40.328  29.467  22.750  0.00  0.00    +0.000 C 
ENDBRANCH  23  24
ENDBRANCH  20  23
ENDBRANCH  17  20
ENDBRANCH  15  16
BRANCH  15  27
ATOM     27  CB  VAL A   6      42.682  23.881  22.155  0.00  0.00    +0.027 C 
ATOM     28  CG2 VAL A   6      42.477  22.315  22.058  0.00  0.00    +0.002 C 
ATOM     29  CG1 VAL A   6      41.775  24.745  21.127  0.00  0.00    +0.002 C 
ENDBRANCH  15  27
ENDBRANCH  13  15
ENDBRANCH  10  11
BRANCH  10  30
ATOM     30  CB  THR A   5      39.335  24.347  26.564  0.00  0.00    +0.137 C 
ATOM     31  CG2 THR A   5      40.457  24.410  27.606  0.00  0.00    +0.034 C 
BRANCH  30  32
ATOM     32  OG1 THR A   5      39.400  25.545  25.778  0.00  0.00    -0.382 OA
ATOM     33  HG1 THR A   5      39.265  26.331  26.365  0.00  0.00    +0.210 HD
ENDBRANCH  30  32
ENDBRANCH  10  30
ENDBRANCH   8  10
ENDBRANCH   5   6
BRANCH   5  34
ATOM     34  CB  HIS A   4      37.016  20.298  28.465  0.00  0.00    +0.076 C 
BRANCH  34  35
ATOM     35  CG  HIS A   4      36.555  19.091  29.174  0.00  0.00    +0.082 A 
ATOM     36  CD2 HIS A   4      37.089  18.417  30.224  0.00  0.00    +0.115 A 
ATOM     37  NE2 HIS A   4      36.206  17.405  30.539  0.00  0.00    -0.221 NA
ATOM     38  CE1 HIS A   4      35.156  17.476  29.733  0.00  0.00    +0.199 A 
ATOM     39  ND1 HIS A   4      35.349  18.482  28.894  0.00  0.00    -0.227 NA
ENDBRANCH  34  35
ENDBRANCH   5  34
ENDBRANCH   2   5
BRANCH   1  40
ATOM     40  CA  ASN A   3      40.734  17.635  28.063  0.00  0.00    +0.158 C 
BRANCH  40  43
ATOM     41  C   THR A   2      40.152  15.748  29.492  0.00  0.00    +0.243 C 
ATOM     42  O   THR A   2      39.963  16.474  30.445  0.00  0.00    -0.273 OA
ATOM     43  N   ASN A   3      40.475  16.239  28.295  0.00  0.00    -0.297 N 
ATOM     44  H   ASN A   3      40.543  15.582  27.492  0.00  0.00    +0.150 HD
BRANCH  41  45
ATOM     45  CA  THR A   2      39.920  14.238  29.604  0.00  0.00    +0.176 C 
BRANCH  45  47
ATOM     46  C   TYR A   1      41.766  12.859  30.504  0.00  0.00    +0.239 C 
ATOM     47  N   THR A   2      40.695  13.649  30.697  0.00  0.00    -0.295 N 
ATOM     48  H   THR A   2      40.402  13.852  31.674  0.00  0.00    +0.150 HD
ATOM     49  O   TYR A   1      42.142  12.461  29.400  0.00  0.00    -0.274 OA
BRANCH  46  50
ATOM     50  CA  TYR A   1      42.572  12.437  31.722  0.00  0.00    +0.149 C 
BRANCH  50  51
ATOM     51  N   TYR A   1      42.762  11.008  31.723  0.00  0.00    -0.238 NA
ATOM     52  H   TYR A   1      43.128  10.530  30.875  0.00  0.00    +0.142 HD
ENDBRANCH  50  51
BRANCH  50  53
ATOM     53  CB  TYR A   1      43.939  13.126  31.759  0.00  0.00    +0.053 C 
BRANCH  53  54
ATOM     54  CG  TYR A   1      43.942  14.571  31.231  0.00  0.00    -0.020 A 
ATOM     55  CD2 TYR A   1      43.236  15.565  31.879  0.00  0.00    -0.001 A 
ATOM     56  CE2 TYR A   1      43.240  16.891  31.393  0.00  0.00    +0.036 A 
ATOM     57  CZ  TYR A   1      44.022  17.234  30.285  0.00  0.00    +0.134 A 
ATOM     58  CE1 TYR A   1      44.761  16.248  29.634  0.00  0.00    +0.036 A 
ATOM     59  CD1 TYR A   1      44.711  14.922  30.120  0.00  0.00    -0.001 A 
BRANCH  57  60
ATOM     60  OH  TYR A   1      44.000  18.535  29.811  0.00  0.00    -0.506 OA
ATOM     61  HH  TYR A   1      44.304  19.150  30.525  0.00  0.00    +0.292 HD
ENDBRANCH  57  60
ENDBRANCH  53  54
ENDBRANCH  50  53
ENDBRANCH  46  50
ENDBRANCH  45  47
BRANCH  45  62
ATOM     62  CB  THR A   2      38.387  14.072  29.890  0.00  0.00    +0.137 C 
ATOM     63  CG2 THR A   2      37.505  14.626  28.778  0.00  0.00    +0.034 C 
BRANCH  62  64
ATOM     64  OG1 THR A   2      38.096  12.697  30.087  0.00  0.00    -0.382 OA
ATOM     65  HG1 THR A   2      38.340  12.189  29.273  0.00  0.00    +0.210 HD
ENDBRANCH  62  64
ENDBRANCH  45  62
ENDBRANCH  41  45
ENDBRANCH  40  43
BRANCH  40  66
ATOM     66  CB  ASN A   3      41.956  17.778  27.132  0.00  0.00    +0.114 C 
BRANCH  66  67
ATOM     67  CG  ASN A   3      42.108  19.189  26.568  0.00  0.00    +0.222 C 
ATOM     68  ND2 ASN A   3      42.898  20.046  27.233  0.00  0.00    -0.329 N 
ATOM     69 HD21 ASN A   3      43.385  19.739  28.099  0.00  0.00    +0.145 HD
ATOM     70 HD22 ASN A   3      43.023  21.017  26.882  0.00  0.00    +0.145 HD
ATOM     71  OD1 ASN A   3      41.516  19.504  25.547  0.00  0.00    -0.275 OA
ENDBRANCH  66  67
ENDBRANCH  40  66
ENDBRANCH   1  40
TORSDOF 28
REMARK  Name = ../refined-set-2016/4el0/4el0_pocket.pdb
REMARK  270 active torsions:
REMARK  status: ('A' for Active; 'I' for Inactive)
REMARK    1  A    between atoms: _1  and  _3
REMARK    2  A    between atoms: _3  and  _4
REMARK    3  A    between atoms: _3  and  _6
REMARK    4  A    between atoms: _6  and  _7
REMARK    5  A    between atoms: _12  and  _13
REMARK    6  A    between atoms: _15  and  _17
REMARK    7  A    between atoms: _17  and  _18
REMARK    8  A    between atoms: _17  and  _20
REMARK    9  A    between atoms: _20  and  _21
REMARK   10  A    between atoms: _21  and  _22
REMARK   11  A    between atoms: _25  and  _27
REMARK   12  A    between atoms: _27  and  _28
REMARK   13  A    between atoms: _27  and  _30
REMARK   14  A    between atoms: _30  and  _31
REMARK   15  A    between atoms: _36  and  _38
REMARK   16  A    between atoms: _38  and  _39
REMARK   17  A    between atoms: _41  and  _43
REMARK   18  A    between atoms: _43  and  _44
REMARK   19  A    between atoms: _46  and  _48
REMARK   20  A    between atoms: _48  and  _49
REMARK   21  A    between atoms: _48  and  _51
REMARK   22  A    between atoms: _51  and  _52
REMARK   23  A    between atoms: _55  and  _57
REMARK   24  A    between atoms: _57  and  _58
REMARK   25  A    between atoms: _60  and  _62
REMARK   26  A    between atoms: _62  and  _63
REMARK   27  A    between atoms: _62  and  _65
REMARK   28  A    between atoms: _66  and  _67
REMARK   29  A    between atoms: _67  and  _68
REMARK   30  A    between atoms: _77  and  _79
REMARK   31  A    between atoms: _79  and  _80
REMARK   32  A    between atoms: _79  and  _82
REMARK   33  A    between atoms: _82  and  _83
REMARK   34  A    between atoms: _86  and  _88
REMARK   35  A    between atoms: _88  and  _89
REMARK   36  A    between atoms: _92  and  _94
REMARK   37  A    between atoms: _94  and  _95
REMARK   38  A    between atoms: _94  and  _97
REMARK   39  A    between atoms: _97  and  _98
REMARK   40  A    between atoms: _104  and  _106
REMARK   41  A    between atoms: _106  and  _107
REMARK   42  A    between atoms: _106  and  _109
REMARK   43  A    between atoms: _109  and  _110
REMARK   44  A    between atoms: _115  and  _117
REMARK   45  A    between atoms: _117  and  _118
REMARK   46  A    between atoms: _117  and  _120
REMARK   47  A    between atoms: _120  and  _121
REMARK   48  A    between atoms: _124  and  _126
REMARK   49  A    between atoms: _126  and  _127
REMARK   50  A    between atoms: _126  and  _129
REMARK   51  A    between atoms: _129  and  _130
REMARK   52  A    between atoms: _135  and  _137
REMARK   53  A    between atoms: _137  and  _138
REMARK   54  A    between atoms: _137  and  _140
REMARK   55  A    between atoms: _140  and  _141
REMARK   56  A    between atoms: _147  and  _149
REMARK   57  A    between atoms: _149  and  _150
REMARK   58  A    between atoms: _149  and  _152
REMARK   59  A    between atoms: _152  and  _153
REMARK   60  A    between atoms: _159  and  _161
REMARK   61  A    between atoms: _161  and  _162
REMARK   62  A    between atoms: _161  and  _164
REMARK   63  A    between atoms: _164  and  _165
REMARK   64  A    between atoms: _165  and  _166
REMARK   65  A    between atoms: _169  and  _171
REMARK   66  A    between atoms: _171  and  _172
REMARK   67  A    between atoms: _171  and  _174
REMARK   68  A    between atoms: _174  and  _175
REMARK   69  A    between atoms: _175  and  _176
REMARK   70  A    between atoms: _176  and  _177
REMARK   71  A    between atoms: _186  and  _188
REMARK   72  A    between atoms: _188  and  _189
REMARK   73  A    between atoms: _188  and  _191
REMARK   74  A    between atoms: _191  and  _192
REMARK   75  A    between atoms: _192  and  _193
REMARK   76  A    between atoms: _196  and  _198
REMARK   77  A    between atoms: _198  and  _199
REMARK   78  A    between atoms: _198  and  _201
REMARK   79  A    between atoms: _201  and  _202
REMARK   80  A    between atoms: _207  and  _209
REMARK   81  A    between atoms: _209  and  _210
REMARK   82  A    between atoms: _209  and  _212
REMARK   83  A    between atoms: _212  and  _213
REMARK   84  A    between atoms: _216  and  _218
REMARK   85  A    between atoms: _218  and  _219
REMARK   86  A    between atoms: _218  and  _221
REMARK   87  A    between atoms: _221  and  _222
REMARK   88  A    between atoms: _225  and  _227
REMARK   89  A    between atoms: _227  and  _228
REMARK   90  A    between atoms: _227  and  _230
REMARK   91  A    between atoms: _230  and  _231
REMARK   92  A    between atoms: _236  and  _238
REMARK   93  A    between atoms: _238  and  _239
REMARK   94  A    between atoms: _238  and  _241
REMARK   95  A    between atoms: _241  and  _242
REMARK   96  A    between atoms: _247  and  _248
REMARK   97  A    between atoms: _250  and  _252
REMARK   98  A    between atoms: _252  and  _253
REMARK   99  A    between atoms: _252  and  _255
REMARK  100  A    between atoms: _255  and  _256
REMARK  101  A    between atoms: _259  and  _261
REMARK  102  A    between atoms: _261  and  _262
REMARK  103  A    between atoms: _261  and  _264
REMARK  104  A    between atoms: _264  and  _265
REMARK  105  A    between atoms: _270  and  _272
REMARK  106  A    between atoms: _272  and  _273
REMARK  107  A    between atoms: _272  and  _275
REMARK  108  A    between atoms: _275  and  _276
REMARK  109  A    between atoms: _281  and  _283
REMARK  110  A    between atoms: _283  and  _284
REMARK  111  A    between atoms: _283  and  _286
REMARK  112  A    between atoms: _286  and  _287
REMARK  113  A    between atoms: _290  and  _292
REMARK  114  A    between atoms: _292  and  _293
REMARK  115  A    between atoms: _292  and  _295
REMARK  116  A    between atoms: _298  and  _300
REMARK  117  A    between atoms: _300  and  _301
REMARK  118  A    between atoms: _300  and  _303
REMARK  119  A    between atoms: _303  and  _304
REMARK  120  A    between atoms: _307  and  _309
REMARK  121  A    between atoms: _309  and  _310
REMARK  122  A    between atoms: _309  and  _312
REMARK  123  A    between atoms: _312  and  _313
REMARK  124  A    between atoms: _313  and  _314
REMARK  125  A    between atoms: _317  and  _319
REMARK  126  A    between atoms: _319  and  _320
REMARK  127  A    between atoms: _323  and  _325
REMARK  128  A    between atoms: _325  and  _326
REMARK  129  A    between atoms: _325  and  _328
REMARK  130  A    between atoms: _328  and  _329
REMARK  131  A    between atoms: _332  and  _334
REMARK  132  A    between atoms: _334  and  _335
REMARK  133  A    between atoms: _334  and  _337
REMARK  134  A    between atoms: _337  and  _338
REMARK  135  A    between atoms: _338  and  _339
REMARK  136  A    between atoms: _342  and  _344
REMARK  137  A    between atoms: _344  and  _345
REMARK  138  A    between atoms: _344  and  _347
REMARK  139  A    between atoms: _347  and  _348
REMARK  140  A    between atoms: _348  and  _349
REMARK  141  A    between atoms: _349  and  _350
REMARK  142  A    between atoms: _359  and  _361
REMARK  143  A    between atoms: _361  and  _362
REMARK  144  A    between atoms: _361  and  _364
REMARK  145  A    between atoms: _364  and  _365
REMARK  146  A    between atoms: _375  and  _377
REMARK  147  A    between atoms: _377  and  _378
REMARK  148  A    between atoms: _377  and  _380
REMARK  149  A    between atoms: _380  and  _381
REMARK  150  A    between atoms: _381  and  _382
REMARK  151  A    between atoms: _384  and  _386
REMARK  152  A    between atoms: _386  and  _387
REMARK  153  A    between atoms: _390  and  _392
REMARK  154  A    between atoms: _392  and  _393
REMARK  155  A    between atoms: _392  and  _395
REMARK  156  A    between atoms: _395  and  _396
REMARK  157  A    between atoms: _401  and  _403
REMARK  158  A    between atoms: _403  and  _404
REMARK  159  A    between atoms: _406  and  _408
REMARK  160  A    between atoms: _408  and  _409
REMARK  161  A    between atoms: _408  and  _411
REMARK  162  A    between atoms: _414  and  _416
REMARK  163  A    between atoms: _416  and  _417
REMARK  164  A    between atoms: _420  and  _422
REMARK  165  A    between atoms: _422  and  _423
REMARK  166  A    between atoms: _422  and  _425
REMARK  167  A    between atoms: _425  and  _426
REMARK  168  A    between atoms: _431  and  _433
REMARK  169  A    between atoms: _433  and  _434
REMARK  170  A    between atoms: _433  and  _436
REMARK  171  A    between atoms: _436  and  _437
REMARK  172  A    between atoms: _437  and  _438
REMARK  173  A    between atoms: _438  and  _439
REMARK  174  A    between atoms: _439  and  _440
REMARK  175  A    between atoms: _444  and  _446
REMARK  176  A    between atoms: _446  and  _447
REMARK  177  A    between atoms: _446  and  _449
REMARK  178  A    between atoms: _449  and  _450
REMARK  179  A    between atoms: _453  and  _455
REMARK  180  A    between atoms: _455  and  _456
REMARK  181  A    between atoms: _455  and  _458
REMARK  182  A    between atoms: _458  and  _459
REMARK  183  A    between atoms: _464  and  _466
REMARK  184  A    between atoms: _466  and  _467
REMARK  185  A    between atoms: _469  and  _471
REMARK  186  A    between atoms: _471  and  _472
REMARK  187  A    between atoms: _471  and  _474
REMARK  188  A    between atoms: _474  and  _475
REMARK  189  A    between atoms: _475  and  _476
REMARK  190  A    between atoms: _476  and  _477
REMARK  191  A    between atoms: _477  and  _478
REMARK  192  A    between atoms: _482  and  _484
REMARK  193  A    between atoms: _484  and  _485
REMARK  194  A    between atoms: _484  and  _487
REMARK  195  A    between atoms: _487  and  _488
REMARK  196  A    between atoms: _488  and  _489
REMARK  197  A    between atoms: _489  and  _490
REMARK  198  A    between atoms: _499  and  _501
REMARK  199  A    between atoms: _501  and  _502
REMARK  200  A    between atoms: _501  and  _504
REMARK  201  A    between atoms: _504  and  _505
REMARK  202  A    between atoms: _510  and  _511
REMARK  203  A    between atoms: _513  and  _515
REMARK  204  A    between atoms: _515  and  _516
REMARK  205  A    between atoms: _515  and  _518
REMARK  206  A    between atoms: _518  and  _519
REMARK  207  A    between atoms: _519  and  _520
REMARK  208  A    between atoms: _520  and  _521
REMARK  209  A    between atoms: _521  and  _522
REMARK  210  A    between atoms: _526  and  _528
REMARK  211  A    between atoms: _528  and  _529
REMARK  212  A    between atoms: _528  and  _531
REMARK  213  A    between atoms: _531  and  _532
REMARK  214  A    between atoms: _534  and  _536
REMARK  215  A    between atoms: _536  and  _537
REMARK  216  A    between atoms: _536  and  _539
REMARK  217  A    between atoms: _539  and  _540
REMARK  218  A    between atoms: _543  and  _545
REMARK  219  A    between atoms: _545  and  _546
REMARK  220  A    between atoms: _545  and  _548
REMARK  221  A    between atoms: _548  and  _549
REMARK  222  A    between atoms: _549  and  _550
REMARK  223  A    between atoms: _553  and  _555
REMARK  224  A    between atoms: _555  and  _556
REMARK  225  A    between atoms: _559  and  _561
REMARK  226  A    between atoms: _561  and  _562
REMARK  227  A    between atoms: _561  and  _564
REMARK  228  A    between atoms: _564  and  _565
REMARK  229  A    between atoms: _567  and  _569
REMARK  230  A    between atoms: _569  and  _570
REMARK  231  A    between atoms: _572  and  _574
REMARK  232  A    between atoms: _574  and  _575
REMARK  233  A    between atoms: _574  and  _577
REMARK  234  A    between atoms: _577  and  _578
REMARK  235  A    between atoms: _581  and  _583
REMARK  236  A    between atoms: _583  and  _584
REMARK  237  A    between atoms: _586  and  _588
REMARK  238  A    between atoms: _588  and  _589
REMARK  239  A    between atoms: _588  and  _591
REMARK  240  A    between atoms: _591  and  _592
REMARK  241  A    between atoms: _597  and  _599
REMARK  242  A    between atoms: _599  and  _600
REMARK  243  A    between atoms: _599  and  _602
REMARK  244  A    between atoms: _602  and  _603
REMARK  245  A    between atoms: _603  and  _604
REMARK  246  A    between atoms: _611  and  _612
REMARK  247  A    between atoms: _612  and  _628
REMARK  248  A    between atoms: _613  and  _615
REMARK  249  A    between atoms: _615  and  _616
REMARK  250  A    between atoms: _616  and  _617
REMARK  251  A    between atoms: _621  and  _623
REMARK  252  A    between atoms: _623  and  _624
REMARK  253  A    between atoms: _623  and  _631
REMARK  254  A    between atoms: _624  and  _625
REMARK  255  A    between atoms: _625  and  _626
REMARK  256  A    between atoms: _626  and  _627
REMARK  257  A    between atoms: _627  and  _628
REMARK  258  A    between atoms: _633  and  _635
REMARK  259  A    between atoms: _635  and  _636
REMARK  260  A    between atoms: _635  and  _638
REMARK  261  A    between atoms: _638  and  _639
REMARK  262  A    between atoms: _642  and  _644
REMARK  263  A    between atoms: _644  and  _645
REMARK  264  A    between atoms: _647  and  _649
REMARK  265  A    between atoms: _649  and  _650
REMARK  266  A    between atoms: _653  and  _655
REMARK  267  A    between atoms: _655  and  _656
REMARK  268  A    between atoms: _655  and  _658
REMARK  269  A    between atoms: _658  and  _659
REMARK  270  A    between atoms: _664  and  _665
REMARK                            x       y       z     vdW  Elec       q    Type
REMARK                         _______ _______ _______ _____ _____    ______ ____
ROOT
ATOM      1  C   GLU A   4      47.406  25.700  34.494  0.00  0.00    +0.241 C 
ATOM      2  N   ARG A   5      48.017  26.744  35.040  0.00  0.00    -0.297 N 
ATOM      3  H   ARG A   5      47.448  27.532  35.411  0.00  0.00    +0.150 HD
ATOM      4  O   GLU A   4      47.994  24.711  34.084  0.00  0.00    -0.273 OA
ENDROOT
BRANCH   1   5
ATOM      5  CA  GLU A   4      45.906  25.755  34.446  0.00  0.00    +0.149 C 
BRANCH   5   7
ATOM      6  C   LEU A   3      45.425  26.464  32.171  0.00  0.00    +0.241 C 
ATOM      7  N   GLU A   4      45.447  25.501  33.092  0.00  0.00    -0.297 N 
ATOM      8  H   GLU A   4      45.128  24.545  32.835  0.00  0.00    +0.150 HD
ATOM      9  O   LEU A   3      45.840  27.595  32.392  0.00  0.00    -0.273 OA
BRANCH   6  10
ATOM     10  CA  LEU A   3      44.826  26.110  30.813  0.00  0.00    +0.149 C 
BRANCH  10  13
ATOM     11  C   ALA A   2      42.794  27.514  30.748  0.00  0.00    +0.241 C 
ATOM     12  O   ALA A   2      42.322  27.013  31.759  0.00  0.00    -0.273 OA
ATOM     13  N   LEU A   3      44.028  27.201  30.271  0.00  0.00    -0.297 N 
ATOM     14  H   LEU A   3      44.418  27.763  29.488  0.00  0.00    +0.150 HD
BRANCH  11  15
ATOM     15  CA  ALA A   2      41.951  28.560  29.965  0.00  0.00    +0.149 C 
ATOM     16  CB  ALA A   2      40.865  27.868  29.127  0.00  0.00    +0.031 C 
BRANCH  15  19
ATOM     17  C   GLU A   1      43.421  30.483  29.615  0.00  0.00    +0.238 C 
ATOM     18  O   GLU A   1      43.245  30.897  30.796  0.00  0.00    -0.274 OA
ATOM     19  N   ALA A   2      42.834  29.390  29.126  0.00  0.00    -0.297 N 
ATOM     20  H   ALA A   2      43.002  29.119  28.136  0.00  0.00    +0.150 HD
BRANCH  17  21
ATOM     21  CA  GLU A   1      44.334  31.263  28.652  0.00  0.00    +0.145 C 
BRANCH  21  22
ATOM     22  N   GLU A   1      44.519  30.616  27.382  0.00  0.00    -0.238 NA
ATOM     23  H   GLU A   1      43.985  30.923  26.544  0.00  0.00    +0.142 HD
ENDBRANCH  21  22
BRANCH  21  24
ATOM     24  CB  GLU A   1      43.829  32.678  28.460  0.00  0.00    +0.038 C 
BRANCH  24  25
ATOM     25  CG  GLU A   1      42.361  32.791  27.952  0.00  0.00    +0.116 C 
BRANCH  25  26
ATOM     26  CD  GLU A   1      42.176  32.608  26.434  0.00  0.00    +0.365 C 
ATOM     27  OE2 GLU A   1      41.056  32.914  25.926  0.00  0.00    -0.246 OA
ATOM     28  OE1 GLU A   1      43.109  32.137  25.755  0.00  0.00    -0.246 OA
ENDBRANCH  25  26
ENDBRANCH  24  25
ENDBRANCH  21  24
ENDBRANCH  17  21
ENDBRANCH  15  19
ENDBRANCH  11  15
ENDBRANCH  10  13
BRANCH  10  29
ATOM     29  CB  LEU A   3      45.951  25.763  29.864  0.00  0.00    +0.029 C 
BRANCH  29  30
ATOM     30  CG  LEU A   3      45.630  25.321  28.431  0.00  0.00    +0.002 C 
ATOM     31  CD2 LEU A   3      44.492  24.319  28.295  0.00  0.00    +0.000 C 
ATOM     32  CD1 LEU A   3      46.917  24.787  27.791  0.00  0.00    +0.000 C 
ENDBRANCH  29  30
ENDBRANCH  10  29
ENDBRANCH   6  10
ENDBRANCH   5   7
BRANCH   5  33
ATOM     33  CB  GLU A   4      45.343  24.740  35.429  0.00  0.00    +0.041 C 
BRANCH  33  34
ATOM     34  CG  GLU A   4      43.862  24.888  35.659  0.00  0.00    +0.116 C 
BRANCH  34  35
ATOM     35  CD  GLU A   4      43.373  24.041  36.809  0.00  0.00    +0.365 C 
ATOM     36  OE2 GLU A   4      43.009  24.699  37.788  0.00  0.00    -0.246 OA
ATOM     37  OE1 GLU A   4      43.372  22.747  36.765  0.00  0.00    -0.246 OA
ENDBRANCH  34  35
ENDBRANCH  33  34
ENDBRANCH   5  33
ENDBRANCH   1   5
BRANCH   2  38
ATOM     38  CA  ARG A   5      49.459  26.806  35.128  0.00  0.00    +0.149 C 
BRANCH  38  39
ATOM     39  C   ARG A   5      49.836  27.392  36.459  0.00  0.00    +0.241 C 
ATOM     40  N   TRP A   6      50.064  26.567  37.436  0.00  0.00    -0.298 N 
ATOM     41  H   TRP A   6      50.184  25.551  37.250  0.00  0.00    +0.150 HD
ATOM     42  O   ARG A   5      49.893  28.565  36.631  0.00  0.00    -0.273 OA
BRANCH  40  43
ATOM     43  CA  TRP A   6      50.148  27.074  38.771  0.00  0.00    +0.141 C 
BRANCH  43  44
ATOM     44  C   TRP A   6      51.561  27.599  39.095  0.00  0.00    +0.227 C 
ATOM     45  O   TRP A   6      52.536  26.889  38.870  0.00  0.00    -0.286 OA
ENDBRANCH  43  44
BRANCH  43  46
ATOM     46  CB  TRP A   6      49.751  25.988  39.749  0.00  0.00    +0.056 C 
BRANCH  46  47
ATOM     47  CG  TRP A   6      48.287  25.770  39.831  0.00  0.00    -0.002 A 
ATOM     48  CD2 TRP A   6      47.310  26.624  40.480  0.00  0.00    +0.013 A 
ATOM     49  CE3 TRP A   6      47.386  27.854  41.175  0.00  0.00    +0.001 A 
ATOM     50  CZ3 TRP A   6      46.163  28.443  41.678  0.00  0.00    +0.000 A 
ATOM     51  CH2 TRP A   6      44.925  27.772  41.529  0.00  0.00    +0.001 A 
ATOM     52  CZ2 TRP A   6      44.832  26.583  40.831  0.00  0.00    +0.017 A 
ATOM     53  CE2 TRP A   6      46.039  26.001  40.327  0.00  0.00    +0.056 A 
ATOM     54  NE1 TRP A   6      46.237  24.816  39.659  0.00  0.00    -0.352 N 
ATOM     55  HE1 TRP A   6      45.490  24.130  39.427  0.00  0.00    +0.166 HD
ATOM     56  CD1 TRP A   6      47.568  24.670  39.343  0.00  0.00    +0.068 A 
ENDBRANCH  46  47
ENDBRANCH  43  46
ENDBRANCH  40  43
ENDBRANCH  38  39
BRANCH  38  57
ATOM     57  CB  ARG A   5      50.020  27.585  33.941  0.00  0.00    +0.033 C 
BRANCH  57  58
ATOM     58  CG  ARG A   5      49.928  26.759  32.643  0.00  0.00    +0.045 C 
BRANCH  58  59
ATOM     59  CD  ARG A   5      49.705  27.574  31.377  0.00  0.00    +0.174 C 
BRANCH  59  60
ATOM     60  NE  ARG A   5      50.834  28.399  31.110  0.00  0.00    -0.265 N 
ATOM     61  CZ  ARG A   5      50.852  29.720  31.307  0.00  0.00    +0.342 C 
ATOM     62  NH2 ARG A   5      49.759  30.344  31.752  0.00  0.00    -0.292 N 
ATOM     63 HH21 ARG A   5      48.893  29.802  31.945  0.00  0.00    +0.255 HD
ATOM     64 HH22 ARG A   5      49.773  31.373  31.905  0.00  0.00    +0.255 HD
ATOM     65  NH1 ARG A   5      51.970  30.440  31.042  0.00  0.00    -0.292 N 
ATOM     66 HH11 ARG A   5      51.976  31.468  31.198  0.00  0.00    +0.255 HD
ATOM     67 HH12 ARG A   5      52.822  29.964  30.683  0.00  0.00    +0.255 HD
ATOM     68  HE  ARG A   5      51.695  27.947  30.740  0.00  0.00    +0.259 HD
ENDBRANCH  59  60
ENDBRANCH  58  59
ENDBRANCH  57  58
ENDBRANCH  38  57
ENDBRANCH   2  38
TORSDOF 26
REMARK  Name = ../refined-set-2016/4el0/4el0_pocket.pdb
REMARK  270 active torsions:
REMARK  status: ('A' for Active; 'I' for Inactive)
REMARK    1  A    between atoms: _1  and  _3
REMARK    2  A    between atoms: _3  and  _4
REMARK    3  A    between atoms: _3  and  _6
REMARK    4  A    between atoms: _6  and  _7
REMARK    5  A    between atoms: _12  and  _13
REMARK    6  A    between atoms: _15  and  _17
REMARK    7  A    between atoms: _17  and  _18
REMARK    8  A    between atoms: _17  and  _20
REMARK    9  A    between atoms: _20  and  _21
REMARK   10  A    between atoms: _21  and  _22
REMARK   11  A    between atoms: _25  and  _27
REMARK   12  A    between atoms: _27  and  _28
REMARK   13  A    between atoms: _27  and  _30
REMARK   14  A    between atoms: _30  and  _31
REMARK   15  A    between atoms: _36  and  _38
REMARK   16  A    between atoms: _38  and  _39
REMARK   17  A    between atoms: _41  and  _43
REMARK   18  A    between atoms: _43  and  _44
REMARK   19  A    between atoms: _46  and  _48
REMARK   20  A    between atoms: _48  and  _49
REMARK   21  A    between atoms: _48  and  _51
REMARK   22  A    between atoms: _51  and  _52
REMARK   23  A    between atoms: _55  and  _57
REMARK   24  A    between atoms: _57  and  _58
REMARK   25  A    between atoms: _60  and  _62
REMARK   26  A    between atoms: _62  and  _63
REMARK   27  A    between atoms: _62  and  _65
REMARK   28  A    between atoms: _66  and  _67
REMARK   29  A    between atoms: _67  and  _68
REMARK   30  A    between atoms: _77  and  _79
REMARK   31  A    between atoms: _79  and  _80
REMARK   32  A    between atoms: _79  and  _82
REMARK   33  A    between atoms: _82  and  _83
REMARK   34  A    between atoms: _86  and  _88
REMARK   35  A    between atoms: _88  and  _89
REMARK   36  A    between atoms: _92  and  _94
REMARK   37  A    between atoms: _94  and  _95
REMARK   38  A    between atoms: _94  and  _97
REMARK   39  A    between atoms: _97  and  _98
REMARK   40  A    between atoms: _104  and  _106
REMARK   41  A    between atoms: _106  and  _107
REMARK   42  A    between atoms: _106  and  _109
REMARK   43  A    between atoms: _109  and  _110
REMARK   44  A    between atoms: _115  and  _117
REMARK   45  A    between atoms: _117  and  _118
REMARK   46  A    between atoms: _117  and  _120
REMARK   47  A    between atoms: _120  and  _121
REMARK   48  A    between atoms: _124  and  _126
REMARK   49  A    between atoms: _126  and  _127
REMARK   50  A    between atoms: _126  and  _129
REMARK   51  A    between atoms: _129  and  _130
REMARK   52  A    between atoms: _135  and  _137
REMARK   53  A    between atoms: _137  and  _138
REMARK   54  A    between atoms: _137  and  _140
REMARK   55  A    between atoms: _140  and  _141
REMARK   56  A    between atoms: _147  and  _149
REMARK   57  A    between atoms: _149  and  _150
REMARK   58  A    between atoms: _149  and  _152
REMARK   59  A    between atoms: _152  and  _153
REMARK   60  A    between atoms: _159  and  _161
REMARK   61  A    between atoms: _161  and  _162
REMARK   62  A    between atoms: _161  and  _164
REMARK   63  A    between atoms: _164  and  _165
REMARK   64  A    between atoms: _165  and  _166
REMARK   65  A    between atoms: _169  and  _171
REMARK   66  A    between atoms: _171  and  _172
REMARK   67  A    between atoms: _171  and  _174
REMARK   68  A    between atoms: _174  and  _175
REMARK   69  A    between atoms: _175  and  _176
REMARK   70  A    between atoms: _176  and  _177
REMARK   71  A    between atoms: _186  and  _188
REMARK   72  A    between atoms: _188  and  _189
REMARK   73  A    between atoms: _188  and  _191
REMARK   74  A    between atoms: _191  and  _192
REMARK   75  A    between atoms: _192  and  _193
REMARK   76  A    between atoms: _196  and  _198
REMARK   77  A    between atoms: _198  and  _199
REMARK   78  A    between atoms: _198  and  _201
REMARK   79  A    between atoms: _201  and  _202
REMARK   80  A    between atoms: _207  and  _209
REMARK   81  A    between atoms: _209  and  _210
REMARK   82  A    between atoms: _209  and  _212
REMARK   83  A    between atoms: _212  and  _213
REMARK   84  A    between atoms: _216  and  _218
REMARK   85  A    between atoms: _218  and  _219
REMARK   86  A    between atoms: _218  and  _221
REMARK   87  A    between atoms: _221  and  _222
REMARK   88  A    between atoms: _225  and  _227
REMARK   89  A    between atoms: _227  and  _228
REMARK   90  A    between atoms: _227  and  _230
REMARK   91  A    between atoms: _230  and  _231
REMARK   92  A    between atoms: _236  and  _238
REMARK   93  A    between atoms: _238  and  _239
REMARK   94  A    between atoms: _238  and  _241
REMARK   95  A    between atoms: _241  and  _242
REMARK   96  A    between atoms: _247  and  _248
REMARK   97  A    between atoms: _250  and  _252
REMARK   98  A    between atoms: _252  and  _253
REMARK   99  A    between atoms: _252  and  _255
REMARK  100  A    between atoms: _255  and  _256
REMARK  101  A    between atoms: _259  and  _261
REMARK  102  A    between atoms: _261  and  _262
REMARK  103  A    between atoms: _261  and  _264
REMARK  104  A    between atoms: _264  and  _265
REMARK  105  A    between atoms: _270  and  _272
REMARK  106  A    between atoms: _272  and  _273
REMARK  107  A    between atoms: _272  and  _275
REMARK  108  A    between atoms: _275  and  _276
REMARK  109  A    between atoms: _281  and  _283
REMARK  110  A    between atoms: _283  and  _284
REMARK  111  A    between atoms: _283  and  _286
REMARK  112  A    between atoms: _286  and  _287
REMARK  113  A    between atoms: _290  and  _292
REMARK  114  A    between atoms: _292  and  _293
REMARK  115  A    between atoms: _292  and  _295
REMARK  116  A    between atoms: _298  and  _300
REMARK  117  A    between atoms: _300  and  _301
REMARK  118  A    between atoms: _300  and  _303
REMARK  119  A    between atoms: _303  and  _304
REMARK  120  A    between atoms: _307  and  _309
REMARK  121  A    between atoms: _309  and  _310
REMARK  122  A    between atoms: _309  and  _312
REMARK  123  A    between atoms: _312  and  _313
REMARK  124  A    between atoms: _313  and  _314
REMARK  125  A    between atoms: _317  and  _319
REMARK  126  A    between atoms: _319  and  _320
REMARK  127  A    between atoms: _323  and  _325
REMARK  128  A    between atoms: _325  and  _326
REMARK  129  A    between atoms: _325  and  _328
REMARK  130  A    between atoms: _328  and  _329
REMARK  131  A    between atoms: _332  and  _334
REMARK  132  A    between atoms: _334  and  _335
REMARK  133  A    between atoms: _334  and  _337
REMARK  134  A    between atoms: _337  and  _338
REMARK  135  A    between atoms: _338  and  _339
REMARK  136  A    between atoms: _342  and  _344
REMARK  137  A    between atoms: _344  and  _345
REMARK  138  A    between atoms: _344  and  _347
REMARK  139  A    between atoms: _347  and  _348
REMARK  140  A    between atoms: _348  and  _349
REMARK  141  A    between atoms: _349  and  _350
REMARK  142  A    between atoms: _359  and  _361
REMARK  143  A    between atoms: _361  and  _362
REMARK  144  A    between atoms: _361  and  _364
REMARK  145  A    between atoms: _364  and  _365
REMARK  146  A    between atoms: _375  and  _377
REMARK  147  A    between atoms: _377  and  _378
REMARK  148  A    between atoms: _377  and  _380
REMARK  149  A    between atoms: _380  and  _381
REMARK  150  A    between atoms: _381  and  _382
REMARK  151  A    between atoms: _384  and  _386
REMARK  152  A    between atoms: _386  and  _387
REMARK  153  A    between atoms: _390  and  _392
REMARK  154  A    between atoms: _392  and  _393
REMARK  155  A    between atoms: _392  and  _395
REMARK  156  A    between atoms: _395  and  _396
REMARK  157  A    between atoms: _401  and  _403
REMARK  158  A    between atoms: _403  and  _404
REMARK  159  A    between atoms: _406  and  _408
REMARK  160  A    between atoms: _408  and  _409
REMARK  161  A    between atoms: _408  and  _411
REMARK  162  A    between atoms: _414  and  _416
REMARK  163  A    between atoms: _416  and  _417
REMARK  164  A    between atoms: _420  and  _422
REMARK  165  A    between atoms: _422  and  _423
REMARK  166  A    between atoms: _422  and  _425
REMARK  167  A    between atoms: _425  and  _426
REMARK  168  A    between atoms: _431  and  _433
REMARK  169  A    between atoms: _433  and  _434
REMARK  170  A    between atoms: _433  and  _436
REMARK  171  A    between atoms: _436  and  _437
REMARK  172  A    between atoms: _437  and  _438
REMARK  173  A    between atoms: _438  and  _439
REMARK  174  A    between atoms: _439  and  _440
REMARK  175  A    between atoms: _444  and  _446
REMARK  176  A    between atoms: _446  and  _447
REMARK  177  A    between atoms: _446  and  _449
REMARK  178  A    between atoms: _449  and  _450
REMARK  179  A    between atoms: _453  and  _455
REMARK  180  A    between atoms: _455  and  _456
REMARK  181  A    between atoms: _455  and  _458
REMARK  182  A    between atoms: _458  and  _459
REMARK  183  A    between atoms: _464  and  _466
REMARK  184  A    between atoms: _466  and  _467
REMARK  185  A    between atoms: _469  and  _471
REMARK  186  A    between atoms: _471  and  _472
REMARK  187  A    between atoms: _471  and  _474
REMARK  188  A    between atoms: _474  and  _475
REMARK  189  A    between atoms: _475  and  _476
REMARK  190  A    between atoms: _476  and  _477
REMARK  191  A    between atoms: _477  and  _478
REMARK  192  A    between atoms: _482  and  _484
REMARK  193  A    between atoms: _484  and  _485
REMARK  194  A    between atoms: _484  and  _487
REMARK  195  A    between atoms: _487  and  _488
REMARK  196  A    between atoms: _488  and  _489
REMARK  197  A    between atoms: _489  and  _490
REMARK  198  A    between atoms: _499  and  _501
REMARK  199  A    between atoms: _501  and  _502
REMARK  200  A    between atoms: _501  and  _504
REMARK  201  A    between atoms: _504  and  _505
REMARK  202  A    between atoms: _510  and  _511
REMARK  203  A    between atoms: _513  and  _515
REMARK  204  A    between atoms: _515  and  _516
REMARK  205  A    between atoms: _515  and  _518
REMARK  206  A    between atoms: _518  and  _519
REMARK  207  A    between atoms: _519  and  _520
REMARK  208  A    between atoms: _520  and  _521
REMARK  209  A    between atoms: _521  and  _522
REMARK  210  A    between atoms: _526  and  _528
REMARK  211  A    between atoms: _528  and  _529
REMARK  212  A    between atoms: _528  and  _531
REMARK  213  A    between atoms: _531  and  _532
REMARK  214  A    between atoms: _534  and  _536
REMARK  215  A    between atoms: _536  and  _537
REMARK  216  A    between atoms: _536  and  _539
REMARK  217  A    between atoms: _539  and  _540
REMARK  218  A    between atoms: _543  and  _545
REMARK  219  A    between atoms: _545  and  _546
REMARK  220  A    between atoms: _545  and  _548
REMARK  221  A    between atoms: _548  and  _549
REMARK  222  A    between atoms: _549  and  _550
REMARK  223  A    between atoms: _553  and  _555
REMARK  224  A    between atoms: _555  and  _556
REMARK  225  A    between atoms: _559  and  _561
REMARK  226  A    between atoms: _561  and  _562
REMARK  227  A    between atoms: _561  and  _564
REMARK  228  A    between atoms: _564  and  _565
REMARK  229  A    between atoms: _567  and  _569
REMARK  230  A    between atoms: _569  and  _570
REMARK  231  A    between atoms: _572  and  _574
REMARK  232  A    between atoms: _574  and  _575
REMARK  233  A    between atoms: _574  and  _577
REMARK  234  A    between atoms: _577  and  _578
REMARK  235  A    between atoms: _581  and  _583
REMARK  236  A    between atoms: _583  and  _584
REMARK  237  A    between atoms: _586  and  _588
REMARK  238  A    between atoms: _588  and  _589
REMARK  239  A    between atoms: _588  and  _591
REMARK  240  A    between atoms: _591  and  _592
REMARK  241  A    between atoms: _597  and  _599
REMARK  242  A    between atoms: _599  and  _600
REMARK  243  A    between atoms: _599  and  _602
REMARK  244  A    between atoms: _602  and  _603
REMARK  245  A    between atoms: _603  and  _604
REMARK  246  A    between atoms: _611  and  _612
REMARK  247  A    between atoms: _612  and  _628
REMARK  248  A    between atoms: _613  and  _615
REMARK  249  A    between atoms: _615  and  _616
REMARK  250  A    between atoms: _616  and  _617
REMARK  251  A    between atoms: _621  and  _623
REMARK  252  A    between atoms: _623  and  _624
REMARK  253  A    between atoms: _623  and  _631
REMARK  254  A    between atoms: _624  and  _625
REMARK  255  A    between atoms: _625  and  _626
REMARK  256  A    between atoms: _626  and  _627
REMARK  257  A    between atoms: _627  and  _628
REMARK  258  A    between atoms: _633  and  _635
REMARK  259  A    between atoms: _635  and  _636
REMARK  260  A    between atoms: _635  and  _638
REMARK  261  A    between atoms: _638  and  _639
REMARK  262  A    between atoms: _642  and  _644
REMARK  263  A    between atoms: _644  and  _645
REMARK  264  A    between atoms: _647  and  _649
REMARK  265  A    between atoms: _649  and  _650
REMARK  266  A    between atoms: _653  and  _655
REMARK  267  A    between atoms: _655  and  _656
REMARK  268  A    between atoms: _655  and  _658
REMARK  269  A    between atoms: _658  and  _659
REMARK  270  A    between atoms: _664  and  _665
REMARK                            x       y       z     vdW  Elec       q    Type
REMARK                         _______ _______ _______ _____ _____    ______ ____
ROOT
ATOM      1  C   MET A   1      48.519  19.741  33.824  0.00  0.00    +0.238 C 
ATOM      2  O   MET A   1      48.502  18.529  34.109  0.00  0.00    -0.274 OA
ATOM      3  N   ALA A   2      48.181  20.207  32.634  0.00  0.00    -0.298 N 
ATOM      4  H   ALA A   2      48.078  21.235  32.516  0.00  0.00    +0.150 HD
ENDROOT
BRANCH   3   5
ATOM      5  CA  ALA A   2      47.946  19.350  31.481  0.00  0.00    +0.137 C 
ATOM      6  CB  ALA A   2      47.598  20.205  30.192  0.00  0.00    +0.030 C 
BRANCH   5   7
ATOM      7  C   ALA A   2      49.130  18.416  31.203  0.00  0.00    +0.227 C 
ATOM      8  O   ALA A   2      48.938  17.192  30.977  0.00  0.00    -0.286 OA
ENDBRANCH   5   7
ENDBRANCH   3   5
BRANCH   1   9
ATOM      9  CA  MET A   1      48.926  20.777  34.897  0.00  0.00    +0.146 C 
BRANCH   9  10
ATOM     10  N   MET A   1      49.682  21.905  34.356  0.00  0.00    -0.238 NA
ATOM     11  H   MET A   1      49.260  22.856  34.340  0.00  0.00    +0.142 HD
ENDBRANCH   9  10
BRANCH   9  12
ATOM     12  CB  MET A   1      47.723  21.239  35.758  0.00  0.00    +0.038 C 
BRANCH  12  13
ATOM     13  CG  MET A   1      48.050  22.224  36.876  0.00  0.00    +0.060 C 
BRANCH  13  14
ATOM     14  SD  MET A   1      49.434  21.653  37.886  0.00  0.00    -0.139 S 
ATOM     15  CE  MET A   1      48.783  20.563  39.103  0.00  0.00    +0.069 C 
ENDBRANCH  13  14
ENDBRANCH  12  13
ENDBRANCH   9  12
ENDBRANCH   1   9
TORSDOF 7
REMARK  Name = ../refined-set-2016/4el0/4el0_pocket.pdb
REMARK  270 active torsions:
REMARK  status: ('A' for Active; 'I' for Inactive)
REMARK    1  A    between atoms: _1  and  _3
REMARK    2  A    between atoms: _3  and  _4
REMARK    3  A    between atoms: _3  and  _6
REMARK    4  A    between atoms: _6  and  _7
REMARK    5  A    between atoms: _12  and  _13
REMARK    6  A    between atoms: _15  and  _17
REMARK    7  A    between atoms: _17  and  _18
REMARK    8  A    between atoms: _17  and  _20
REMARK    9  A    between atoms: _20  and  _21
REMARK   10  A    between atoms: _21  and  _22
REMARK   11  A    between atoms: _25  and  _27
REMARK   12  A    between atoms: _27  and  _28
REMARK   13  A    between atoms: _27  and  _30
REMARK   14  A    between atoms: _30  and  _31
REMARK   15  A    between atoms: _36  and  _38
REMARK   16  A    between atoms: _38  and  _39
REMARK   17  A    between atoms: _41  and  _43
REMARK   18  A    between atoms: _43  and  _44
REMARK   19  A    between atoms: _46  and  _48
REMARK   20  A    between atoms: _48  and  _49
REMARK   21  A    between atoms: _48  and  _51
REMARK   22  A    between atoms: _51  and  _52
REMARK   23  A    between atoms: _55  and  _57
REMARK   24  A    between atoms: _57  and  _58
REMARK   25  A    between atoms: _60  and  _62
REMARK   26  A    between atoms: _62  and  _63
REMARK   27  A    between atoms: _62  and  _65
REMARK   28  A    between atoms: _66  and  _67
REMARK   29  A    between atoms: _67  and  _68
REMARK   30  A    between atoms: _77  and  _79
REMARK   31  A    between atoms: _79  and  _80
REMARK   32  A    between atoms: _79  and  _82
REMARK   33  A    between atoms: _82  and  _83
REMARK   34  A    between atoms: _86  and  _88
REMARK   35  A    between atoms: _88  and  _89
REMARK   36  A    between atoms: _92  and  _94
REMARK   37  A    between atoms: _94  and  _95
REMARK   38  A    between atoms: _94  and  _97
REMARK   39  A    between atoms: _97  and  _98
REMARK   40  A    between atoms: _104  and  _106
REMARK   41  A    between atoms: _106  and  _107
REMARK   42  A    between atoms: _106  and  _109
REMARK   43  A    between atoms: _109  and  _110
REMARK   44  A    between atoms: _115  and  _117
REMARK   45  A    between atoms: _117  and  _118
REMARK   46  A    between atoms: _117  and  _120
REMARK   47  A    between atoms: _120  and  _121
REMARK   48  A    between atoms: _124  and  _126
REMARK   49  A    between atoms: _126  and  _127
REMARK   50  A    between atoms: _126  and  _129
REMARK   51  A    between atoms: _129  and  _130
REMARK   52  A    between atoms: _135  and  _137
REMARK   53  A    between atoms: _137  and  _138
REMARK   54  A    between atoms: _137  and  _140
REMARK   55  A    between atoms: _140  and  _141
REMARK   56  A    between atoms: _147  and  _149
REMARK   57  A    between atoms: _149  and  _150
REMARK   58  A    between atoms: _149  and  _152
REMARK   59  A    between atoms: _152  and  _153
REMARK   60  A    between atoms: _159  and  _161
REMARK   61  A    between atoms: _161  and  _162
REMARK   62  A    between atoms: _161  and  _164
REMARK   63  A    between atoms: _164  and  _165
REMARK   64  A    between atoms: _165  and  _166
REMARK   65  A    between atoms: _169  and  _171
REMARK   66  A    between atoms: _171  and  _172
REMARK   67  A    between atoms: _171  and  _174
REMARK   68  A    between atoms: _174  and  _175
REMARK   69  A    between atoms: _175  and  _176
REMARK   70  A    between atoms: _176  and  _177
REMARK   71  A    between atoms: _186  and  _188
REMARK   72  A    between atoms: _188  and  _189
REMARK   73  A    between atoms: _188  and  _191
REMARK   74  A    between atoms: _191  and  _192
REMARK   75  A    between atoms: _192  and  _193
REMARK   76  A    between atoms: _196  and  _198
REMARK   77  A    between atoms: _198  and  _199
REMARK   78  A    between atoms: _198  and  _201
REMARK   79  A    between atoms: _201  and  _202
REMARK   80  A    between atoms: _207  and  _209
REMARK   81  A    between atoms: _209  and  _210
REMARK   82  A    between atoms: _209  and  _212
REMARK   83  A    between atoms: _212  and  _213
REMARK   84  A    between atoms: _216  and  _218
REMARK   85  A    between atoms: _218  and  _219
REMARK   86  A    between atoms: _218  and  _221
REMARK   87  A    between atoms: _221  and  _222
REMARK   88  A    between atoms: _225  and  _227
REMARK   89  A    between atoms: _227  and  _228
REMARK   90  A    between atoms: _227  and  _230
REMARK   91  A    between atoms: _230  and  _231
REMARK   92  A    between atoms: _236  and  _238
REMARK   93  A    between atoms: _238  and  _239
REMARK   94  A    between atoms: _238  and  _241
REMARK   95  A    between atoms: _241  and  _242
REMARK   96  A    between atoms: _247  and  _248
REMARK   97  A    between atoms: _250  and  _252
REMARK   98  A    between atoms: _252  and  _253
REMARK   99  A    between atoms: _252  and  _255
REMARK  100  A    between atoms: _255  and  _256
REMARK  101  A    between atoms: _259  and  _261
REMARK  102  A    between atoms: _261  and  _262
REMARK  103  A    between atoms: _261  and  _264
REMARK  104  A    between atoms: _264  and  _265
REMARK  105  A    between atoms: _270  and  _272
REMARK  106  A    between atoms: _272  and  _273
REMARK  107  A    between atoms: _272  and  _275
REMARK  108  A    between atoms: _275  and  _276
REMARK  109  A    between atoms: _281  and  _283
REMARK  110  A    between atoms: _283  and  _284
REMARK  111  A    between atoms: _283  and  _286
REMARK  112  A    between atoms: _286  and  _287
REMARK  113  A    between atoms: _290  and  _292
REMARK  114  A    between atoms: _292  and  _293
REMARK  115  A    between atoms: _292  and  _295
REMARK  116  A    between atoms: _298  and  _300
REMARK  117  A    between atoms: _300  and  _301
REMARK  118  A    between atoms: _300  and  _303
REMARK  119  A    between atoms: _303  and  _304
REMARK  120  A    between atoms: _307  and  _309
REMARK  121  A    between atoms: _309  and  _310
REMARK  122  A    between atoms: _309  and  _312
REMARK  123  A    between atoms: _312  and  _313
REMARK  124  A    between atoms: _313  and  _314
REMARK  125  A    between atoms: _317  and  _319
REMARK  126  A    between atoms: _319  and  _320
REMARK  127  A    between atoms: _323  and  _325
REMARK  128  A    between atoms: _325  and  _326
REMARK  129  A    between atoms: _325  and  _328
REMARK  130  A    between atoms: _328  and  _329
REMARK  131  A    between atoms: _332  and  _334
REMARK  132  A    between atoms: _334  and  _335
REMARK  133  A    between atoms: _334  and  _337
REMARK  134  A    between atoms: _337  and  _338
REMARK  135  A    between atoms: _338  and  _339
REMARK  136  A    between atoms: _342  and  _344
REMARK  137  A    between atoms: _344  and  _345
REMARK  138  A    between atoms: _344  and  _347
REMARK  139  A    between atoms: _347  and  _348
REMARK  140  A    between atoms: _348  and  _349
REMARK  141  A    between atoms: _349  and  _350
REMARK  142  A    between atoms: _359  and  _361
REMARK  143  A    between atoms: _361  and  _362
REMARK  144  A    between atoms: _361  and  _364
REMARK  145  A    between atoms: _364  and  _365
REMARK  146  A    between atoms: _375  and  _377
REMARK  147  A    between atoms: _377  and  _378
REMARK  148  A    between atoms: _377  and  _380
REMARK  149  A    between atoms: _380  and  _381
REMARK  150  A    between atoms: _381  and  _382
REMARK  151  A    between atoms: _384  and  _386
REMARK  152  A    between atoms: _386  and  _387
REMARK  153  A    between atoms: _390  and  _392
REMARK  154  A    between atoms: _392  and  _393
REMARK  155  A    between atoms: _392  and  _395
REMARK  156  A    between atoms: _395  and  _396
REMARK  157  A    between atoms: _401  and  _403
REMARK  158  A    between atoms: _403  and  _404
REMARK  159  A    between atoms: _406  and  _408
REMARK  160  A    between atoms: _408  and  _409
REMARK  161  A    between atoms: _408  and  _411
REMARK  162  A    between atoms: _414  and  _416
REMARK  163  A    between atoms: _416  and  _417
REMARK  164  A    between atoms: _420  and  _422
REMARK  165  A    between atoms: _422  and  _423
REMARK  166  A    between atoms: _422  and  _425
REMARK  167  A    between atoms: _425  and  _426
REMARK  168  A    between atoms: _431  and  _433
REMARK  169  A    between atoms: _433  and  _434
REMARK  170  A    between atoms: _433  and  _436
REMARK  171  A    between atoms: _436  and  _437
REMARK  172  A    between atoms: _437  and  _438
REMARK  173  A    between atoms: _438  and  _439
REMARK  174  A    between atoms: _439  and  _440
REMARK  175  A    between atoms: _444  and  _446
REMARK  176  A    between atoms: _446  and  _447
REMARK  177  A    between atoms: _446  and  _449
REMARK  178  A    between atoms: _449  and  _450
REMARK  179  A    between atoms: _453  and  _455
REMARK  180  A    between atoms: _455  and  _456
REMARK  181  A    between atoms: _455  and  _458
REMARK  182  A    between atoms: _458  and  _459
REMARK  183  A    between atoms: _464  and  _466
REMARK  184  A    between atoms: _466  and  _467
REMARK  185  A    between atoms: _469  and  _471
REMARK  186  A    between atoms: _471  and  _472
REMARK  187  A    between atoms: _471  and  _474
REMARK  188  A    between atoms: _474  and  _475
REMARK  189  A    between atoms: _475  and  _476
REMARK  190  A    between atoms: _476  and  _477
REMARK  191  A    between atoms: _477  and  _478
REMARK  192  A    between atoms: _482  and  _484
REMARK  193  A    between atoms: _484  and  _485
REMARK  194  A    between atoms: _484  and  _487
REMARK  195  A    between atoms: _487  and  _488
REMARK  196  A    between atoms: _488  and  _489
REMARK  197  A    between atoms: _489  and  _490
REMARK  198  A    between atoms: _499  and  _501
REMARK  199  A    between atoms: _501  and  _502
REMARK  200  A    between atoms: _501  and  _504
REMARK  201  A    between atoms: _504  and  _505
REMARK  202  A    between atoms: _510  and  _511
REMARK  203  A    between atoms: _513  and  _515
REMARK  204  A    between atoms: _515  and  _516
REMARK  205  A    between atoms: _515  and  _518
REMARK  206  A    between atoms: _518  and  _519
REMARK  207  A    between atoms: _519  and  _520
REMARK  208  A    between atoms: _520  and  _521
REMARK  209  A    between atoms: _521  and  _522
REMARK  210  A    between atoms: _526  and  _528
REMARK  211  A    between atoms: _528  and  _529
REMARK  212  A    between atoms: _528  and  _531
REMARK  213  A    between atoms: _531  and  _532
REMARK  214  A    between atoms: _534  and  _536
REMARK  215  A    between atoms: _536  and  _537
REMARK  216  A    between atoms: _536  and  _539
REMARK  217  A    between atoms: _539  and  _540
REMARK  218  A    between atoms: _543  and  _545
REMARK  219  A    between atoms: _545  and  _546
REMARK  220  A    between atoms: _545  and  _548
REMARK  221  A    between atoms: _548  and  _549
REMARK  222  A    between atoms: _549  and  _550
REMARK  223  A    between atoms: _553  and  _555
REMARK  224  A    between atoms: _555  and  _556
REMARK  225  A    between atoms: _559  and  _561
REMARK  226  A    between atoms: _561  and  _562
REMARK  227  A    between atoms: _561  and  _564
REMARK  228  A    between atoms: _564  and  _565
REMARK  229  A    between atoms: _567  and  _569
REMARK  230  A    between atoms: _569  and  _570
REMARK  231  A    between atoms: _572  and  _574
REMARK  232  A    between atoms: _574  and  _575
REMARK  233  A    between atoms: _574  and  _577
REMARK  234  A    between atoms: _577  and  _578
REMARK  235  A    between atoms: _581  and  _583
REMARK  236  A    between atoms: _583  and  _584
REMARK  237  A    between atoms: _586  and  _588
REMARK  238  A    between atoms: _588  and  _589
REMARK  239  A    between atoms: _588  and  _591
REMARK  240  A    between atoms: _591  and  _592
REMARK  241  A    between atoms: _597  and  _599
REMARK  242  A    between atoms: _599  and  _600
REMARK  243  A    between atoms: _599  and  _602
REMARK  244  A    between atoms: _602  and  _603
REMARK  245  A    between atoms: _603  and  _604
REMARK  246  A    between atoms: _611  and  _612
REMARK  247  A    between atoms: _612  and  _628
REMARK  248  A    between atoms: _613  and  _615
REMARK  249  A    between atoms: _615  and  _616
REMARK  250  A    between atoms: _616  and  _617
REMARK  251  A    between atoms: _621  and  _623
REMARK  252  A    between atoms: _623  and  _624
REMARK  253  A    between atoms: _623  and  _631
REMARK  254  A    between atoms: _624  and  _625
REMARK  255  A    between atoms: _625  and  _626
REMARK  256  A    between atoms: _626  and  _627
REMARK  257  A    between atoms: _627  and  _628
REMARK  258  A    between atoms: _633  and  _635
REMARK  259  A    between atoms: _635  and  _636
REMARK  260  A    between atoms: _635  and  _638
REMARK  261  A    between atoms: _638  and  _639
REMARK  262  A    between atoms: _642  and  _644
REMARK  263  A    between atoms: _644  and  _645
REMARK  264  A    between atoms: _647  and  _649
REMARK  265  A    between atoms: _649  and  _650
REMARK  266  A    between atoms: _653  and  _655
REMARK  267  A    between atoms: _655  and  _656
REMARK  268  A    between atoms: _655  and  _658
REMARK  269  A    between atoms: _658  and  _659
REMARK  270  A    between atoms: _664  and  _665
REMARK                            x       y       z     vdW  Elec       q    Type
REMARK                         _______ _______ _______ _____ _____    ______ ____
ROOT
ATOM      1  C   GLY A   2      37.861  14.528  23.580  0.00  0.00    +0.243 C 
ATOM      2  O   GLY A   2      37.465  13.332  23.810  0.00  0.00    -0.273 OA
ATOM      3  N   VAL A   3      37.046  15.504  23.213  0.00  0.00    -0.297 N 
ATOM      4  H   VAL A   3      37.424  16.332  22.710  0.00  0.00    +0.150 HD
ENDROOT
BRANCH   1   5
ATOM      5  CA  GLY A   2      39.317  14.933  23.679  0.00  0.00    +0.176 C 
BRANCH   5   8
ATOM      6  C   ASN A   1      40.449  13.358  25.163  0.00  0.00    +0.239 C 
ATOM      7  O   ASN A   1      40.462  14.094  26.110  0.00  0.00    -0.274 OA
ATOM      8  N   GLY A   2      40.127  13.752  23.932  0.00  0.00    -0.296 N 
ATOM      9  H   GLY A   2      40.467  13.195  23.122  0.00  0.00    +0.150 HD
BRANCH   6  10
ATOM     10  CA  ASN A   1      40.926  11.938  25.338  0.00  0.00    +0.154 C 
BRANCH  10  11
ATOM     11  N   ASN A   1      41.942  11.873  26.400  0.00  0.00    -0.238 NA
ATOM     12  H   ASN A   1      41.761  12.306  27.328  0.00  0.00    +0.142 HD
ENDBRANCH  10  11
BRANCH  10  13
ATOM     13  CB  ASN A   1      39.734  10.954  25.572  0.00  0.00    +0.111 C 
BRANCH  13  14
ATOM     14  CG  ASN A   1      38.765  11.443  26.657  0.00  0.00    +0.221 C 
ATOM     15  OD1 ASN A   1      39.015  11.265  27.839  0.00  0.00    -0.275 OA
ATOM     16  ND2 ASN A   1      37.685  12.104  26.243  0.00  0.00    -0.329 N 
ATOM     17 HD21 ASN A   1      37.015  12.492  26.937  0.00  0.00    +0.145 HD
ATOM     18 HD22 ASN A   1      37.512  12.232  25.226  0.00  0.00    +0.145 HD
ENDBRANCH  13  14
ENDBRANCH  10  13
ENDBRANCH   6  10
ENDBRANCH   5   8
ENDBRANCH   1   5
BRANCH   3  19
ATOM     19  CA  VAL A   3      35.604  15.424  23.514  0.00  0.00    +0.149 C 
BRANCH  19  20
ATOM     20  C   VAL A   3      34.734  15.515  22.281  0.00  0.00    +0.241 C 
ATOM     21  O   VAL A   3      33.517  15.481  22.356  0.00  0.00    -0.273 OA
ATOM     22  N   ALA A   4      35.403  15.540  21.136  0.00  0.00    -0.298 N 
ATOM     23  H   ALA A   4      36.437  15.645  21.177  0.00  0.00    +0.150 HD
BRANCH  22  24
ATOM     24  CA  ALA A   4      34.768  15.427  19.799  0.00  0.00    +0.137 C 
ATOM     25  CB  ALA A   4      34.039  16.729  19.362  0.00  0.00    +0.030 C 
BRANCH  24  26
ATOM     26  C   ALA A   4      35.917  15.112  18.848  0.00  0.00    +0.227 C 
ATOM     27  O   ALA A   4      37.085  15.446  19.124  0.00  0.00    -0.286 OA
ENDBRANCH  24  26
ENDBRANCH  22  24
ENDBRANCH  19  20
BRANCH  19  28
ATOM     28  CB  VAL A   3      35.158  16.382  24.671  0.00  0.00    +0.027 C 
ATOM     29  CG2 VAL A   3      35.631  15.806  26.070  0.00  0.00    +0.002 C 
ATOM     30  CG1 VAL A   3      35.536  17.942  24.419  0.00  0.00    +0.002 C 
ENDBRANCH  19  28
ENDBRANCH   3  19
TORSDOF 11
REMARK  Name = ../refined-set-2016/4el0/4el0_pocket.pdb
REMARK  270 active torsions:
REMARK  status: ('A' for Active; 'I' for Inactive)
REMARK    1  A    between atoms: _1  and  _3
REMARK    2  A    between atoms: _3  and  _4
REMARK    3  A    between atoms: _3  and  _6
REMARK    4  A    between atoms: _6  and  _7
REMARK    5  A    between atoms: _12  and  _13
REMARK    6  A    between atoms: _15  and  _17
REMARK    7  A    between atoms: _17  and  _18
REMARK    8  A    between atoms: _17  and  _20
REMARK    9  A    between atoms: _20  and  _21
REMARK   10  A    between atoms: _21  and  _22
REMARK   11  A    between atoms: _25  and  _27
REMARK   12  A    between atoms: _27  and  _28
REMARK   13  A    between atoms: _27  and  _30
REMARK   14  A    between atoms: _30  and  _31
REMARK   15  A    between atoms: _36  and  _38
REMARK   16  A    between atoms: _38  and  _39
REMARK   17  A    between atoms: _41  and  _43
REMARK   18  A    between atoms: _43  and  _44
REMARK   19  A    between atoms: _46  and  _48
REMARK   20  A    between atoms: _48  and  _49
REMARK   21  A    between atoms: _48  and  _51
REMARK   22  A    between atoms: _51  and  _52
REMARK   23  A    between atoms: _55  and  _57
REMARK   24  A    between atoms: _57  and  _58
REMARK   25  A    between atoms: _60  and  _62
REMARK   26  A    between atoms: _62  and  _63
REMARK   27  A    between atoms: _62  and  _65
REMARK   28  A    between atoms: _66  and  _67
REMARK   29  A    between atoms: _67  and  _68
REMARK   30  A    between atoms: _77  and  _79
REMARK   31  A    between atoms: _79  and  _80
REMARK   32  A    between atoms: _79  and  _82
REMARK   33  A    between atoms: _82  and  _83
REMARK   34  A    between atoms: _86  and  _88
REMARK   35  A    between atoms: _88  and  _89
REMARK   36  A    between atoms: _92  and  _94
REMARK   37  A    between atoms: _94  and  _95
REMARK   38  A    between atoms: _94  and  _97
REMARK   39  A    between atoms: _97  and  _98
REMARK   40  A    between atoms: _104  and  _106
REMARK   41  A    between atoms: _106  and  _107
REMARK   42  A    between atoms: _106  and  _109
REMARK   43  A    between atoms: _109  and  _110
REMARK   44  A    between atoms: _115  and  _117
REMARK   45  A    between atoms: _117  and  _118
REMARK   46  A    between atoms: _117  and  _120
REMARK   47  A    between atoms: _120  and  _121
REMARK   48  A    between atoms: _124  and  _126
REMARK   49  A    between atoms: _126  and  _127
REMARK   50  A    between atoms: _126  and  _129
REMARK   51  A    between atoms: _129  and  _130
REMARK   52  A    between atoms: _135  and  _137
REMARK   53  A    between atoms: _137  and  _138
REMARK   54  A    between atoms: _137  and  _140
REMARK   55  A    between atoms: _140  and  _141
REMARK   56  A    between atoms: _147  and  _149
REMARK   57  A    between atoms: _149  and  _150
REMARK   58  A    between atoms: _149  and  _152
REMARK   59  A    between atoms: _152  and  _153
REMARK   60  A    between atoms: _159  and  _161
REMARK   61  A    between atoms: _161  and  _162
REMARK   62  A    between atoms: _161  and  _164
REMARK   63  A    between atoms: _164  and  _165
REMARK   64  A    between atoms: _165  and  _166
REMARK   65  A    between atoms: _169  and  _171
REMARK   66  A    between atoms: _171  and  _172
REMARK   67  A    between atoms: _171  and  _174
REMARK   68  A    between atoms: _174  and  _175
REMARK   69  A    between atoms: _175  and  _176
REMARK   70  A    between atoms: _176  and  _177
REMARK   71  A    between atoms: _186  and  _188
REMARK   72  A    between atoms: _188  and  _189
REMARK   73  A    between atoms: _188  and  _191
REMARK   74  A    between atoms: _191  and  _192
REMARK   75  A    between atoms: _192  and  _193
REMARK   76  A    between atoms: _196  and  _198
REMARK   77  A    between atoms: _198  and  _199
REMARK   78  A    between atoms: _198  and  _201
REMARK   79  A    between atoms: _201  and  _202
REMARK   80  A    between atoms: _207  and  _209
REMARK   81  A    between atoms: _209  and  _210
REMARK   82  A    between atoms: _209  and  _212
REMARK   83  A    between atoms: _212  and  _213
REMARK   84  A    between atoms: _216  and  _218
REMARK   85  A    between atoms: _218  and  _219
REMARK   86  A    between atoms: _218  and  _221
REMARK   87  A    between atoms: _221  and  _222
REMARK   88  A    between atoms: _225  and  _227
REMARK   89  A    between atoms: _227  and  _228
REMARK   90  A    between atoms: _227  and  _230
REMARK   91  A    between atoms: _230  and  _231
REMARK   92  A    between atoms: _236  and  _238
REMARK   93  A    between atoms: _238  and  _239
REMARK   94  A    between atoms: _238  and  _241
REMARK   95  A    between atoms: _241  and  _242
REMARK   96  A    between atoms: _247  and  _248
REMARK   97  A    between atoms: _250  and  _252
REMARK   98  A    between atoms: _252  and  _253
REMARK   99  A    between atoms: _252  and  _255
REMARK  100  A    between atoms: _255  and  _256
REMARK  101  A    between atoms: _259  and  _261
REMARK  102  A    between atoms: _261  and  _262
REMARK  103  A    between atoms: _261  and  _264
REMARK  104  A    between atoms: _264  and  _265
REMARK  105  A    between atoms: _270  and  _272
REMARK  106  A    between atoms: _272  and  _273
REMARK  107  A    between atoms: _272  and  _275
REMARK  108  A    between atoms: _275  and  _276
REMARK  109  A    between atoms: _281  and  _283
REMARK  110  A    between atoms: _283  and  _284
REMARK  111  A    between atoms: _283  and  _286
REMARK  112  A    between atoms: _286  and  _287
REMARK  113  A    between atoms: _290  and  _292
REMARK  114  A    between atoms: _292  and  _293
REMARK  115  A    between atoms: _292  and  _295
REMARK  116  A    between atoms: _298  and  _300
REMARK  117  A    between atoms: _300  and  _301
REMARK  118  A    between atoms: _300  and  _303
REMARK  119  A    between atoms: _303  and  _304
REMARK  120  A    between atoms: _307  and  _309
REMARK  121  A    between atoms: _309  and  _310
REMARK  122  A    between atoms: _309  and  _312
REMARK  123  A    between atoms: _312  and  _313
REMARK  124  A    between atoms: _313  and  _314
REMARK  125  A    between atoms: _317  and  _319
REMARK  126  A    between atoms: _319  and  _320
REMARK  127  A    between atoms: _323  and  _325
REMARK  128  A    between atoms: _325  and  _326
REMARK  129  A    between atoms: _325  and  _328
REMARK  130  A    between atoms: _328  and  _329
REMARK  131  A    between atoms: _332  and  _334
REMARK  132  A    between atoms: _334  and  _335
REMARK  133  A    between atoms: _334  and  _337
REMARK  134  A    between atoms: _337  and  _338
REMARK  135  A    between atoms: _338  and  _339
REMARK  136  A    between atoms: _342  and  _344
REMARK  137  A    between atoms: _344  and  _345
REMARK  138  A    between atoms: _344  and  _347
REMARK  139  A    between atoms: _347  and  _348
REMARK  140  A    between atoms: _348  and  _349
REMARK  141  A    between atoms: _349  and  _350
REMARK  142  A    between atoms: _359  and  _361
REMARK  143  A    between atoms: _361  and  _362
REMARK  144  A    between atoms: _361  and  _364
REMARK  145  A    between atoms: _364  and  _365
REMARK  146  A    between atoms: _375  and  _377
REMARK  147  A    between atoms: _377  and  _378
REMARK  148  A    between atoms: _377  and  _380
REMARK  149  A    between atoms: _380  and  _381
REMARK  150  A    between atoms: _381  and  _382
REMARK  151  A    between atoms: _384  and  _386
REMARK  152  A    between atoms: _386  and  _387
REMARK  153  A    between atoms: _390  and  _392
REMARK  154  A    between atoms: _392  and  _393
REMARK  155  A    between atoms: _392  and  _395
REMARK  156  A    between atoms: _395  and  _396
REMARK  157  A    between atoms: _401  and  _403
REMARK  158  A    between atoms: _403  and  _404
REMARK  159  A    between atoms: _406  and  _408
REMARK  160  A    between atoms: _408  and  _409
REMARK  161  A    between atoms: _408  and  _411
REMARK  162  A    between atoms: _414  and  _416
REMARK  163  A    between atoms: _416  and  _417
REMARK  164  A    between atoms: _420  and  _422
REMARK  165  A    between atoms: _422  and  _423
REMARK  166  A    between atoms: _422  and  _425
REMARK  167  A    between atoms: _425  and  _426
REMARK  168  A    between atoms: _431  and  _433
REMARK  169  A    between atoms: _433  and  _434
REMARK  170  A    between atoms: _433  and  _436
REMARK  171  A    between atoms: _436  and  _437
REMARK  172  A    between atoms: _437  and  _438
REMARK  173  A    between atoms: _438  and  _439
REMARK  174  A    between atoms: _439  and  _440
REMARK  175  A    between atoms: _444  and  _446
REMARK  176  A    between atoms: _446  and  _447
REMARK  177  A    between atoms: _446  and  _449
REMARK  178  A    between atoms: _449  and  _450
REMARK  179  A    between atoms: _453  and  _455
REMARK  180  A    between atoms: _455  and  _456
REMARK  181  A    between atoms: _455  and  _458
REMARK  182  A    between atoms: _458  and  _459
REMARK  183  A    between atoms: _464  and  _466
REMARK  184  A    between atoms: _466  and  _467
REMARK  185  A    between atoms: _469  and  _471
REMARK  186  A    between atoms: _471  and  _472
REMARK  187  A    between atoms: _471  and  _474
REMARK  188  A    between atoms: _474  and  _475
REMARK  189  A    between atoms: _475  and  _476
REMARK  190  A    between atoms: _476  and  _477
REMARK  191  A    between atoms: _477  and  _478
REMARK  192  A    between atoms: _482  and  _484
REMARK  193  A    between atoms: _484  and  _485
REMARK  194  A    between atoms: _484  and  _487
REMARK  195  A    between atoms: _487  and  _488
REMARK  196  A    between atoms: _488  and  _489
REMARK  197  A    between atoms: _489  and  _490
REMARK  198  A    between atoms: _499  and  _501
REMARK  199  A    between atoms: _501  and  _502
REMARK  200  A    between atoms: _501  and  _504
REMARK  201  A    between atoms: _504  and  _505
REMARK  202  A    between atoms: _510  and  _511
REMARK  203  A    between atoms: _513  and  _515
REMARK  204  A    between atoms: _515  and  _516
REMARK  205  A    between atoms: _515  and  _518
REMARK  206  A    between atoms: _518  and  _519
REMARK  207  A    between atoms: _519  and  _520
REMARK  208  A    between atoms: _520  and  _521
REMARK  209  A    between atoms: _521  and  _522
REMARK  210  A    between atoms: _526  and  _528
REMARK  211  A    between atoms: _528  and  _529
REMARK  212  A    between atoms: _528  and  _531
REMARK  213  A    between atoms: _531  and  _532
REMARK  214  A    between atoms: _534  and  _536
REMARK  215  A    between atoms: _536  and  _537
REMARK  216  A    between atoms: _536  and  _539
REMARK  217  A    between atoms: _539  and  _540
REMARK  218  A    between atoms: _543  and  _545
REMARK  219  A    between atoms: _545  and  _546
REMARK  220  A    between atoms: _545  and  _548
REMARK  221  A    between atoms: _548  and  _549
REMARK  222  A    between atoms: _549  and  _550
REMARK  223  A    between atoms: _553  and  _555
REMARK  224  A    between atoms: _555  and  _556
REMARK  225  A    between atoms: _559  and  _561
REMARK  226  A    between atoms: _561  and  _562
REMARK  227  A    between atoms: _561  and  _564
REMARK  228  A    between atoms: _564  and  _565
REMARK  229  A    between atoms: _567  and  _569
REMARK  230  A    between atoms: _569  and  _570
REMARK  231  A    between atoms: _572  and  _574
REMARK  232  A    between atoms: _574  and  _575
REMARK  233  A    between atoms: _574  and  _577
REMARK  234  A    between atoms: _577  and  _578
REMARK  235  A    between atoms: _581  and  _583
REMARK  236  A    between atoms: _583  and  _584
REMARK  237  A    between atoms: _586  and  _588
REMARK  238  A    between atoms: _588  and  _589
REMARK  239  A    between atoms: _588  and  _591
REMARK  240  A    between atoms: _591  and  _592
REMARK  241  A    between atoms: _597  and  _599
REMARK  242  A    between atoms: _599  and  _600
REMARK  243  A    between atoms: _599  and  _602
REMARK  244  A    between atoms: _602  and  _603
REMARK  245  A    between atoms: _603  and  _604
REMARK  246  A    between atoms: _611  and  _612
REMARK  247  A    between atoms: _612  and  _628
REMARK  248  A    between atoms: _613  and  _615
REMARK  249  A    between atoms: _615  and  _616
REMARK  250  A    between atoms: _616  and  _617
REMARK  251  A    between atoms: _621  and  _623
REMARK  252  A    between atoms: _623  and  _624
REMARK  253  A    between atoms: _623  and  _631
REMARK  254  A    between atoms: _624  and  _625
REMARK  255  A    between atoms: _625  and  _626
REMARK  256  A    between atoms: _626  and  _627
REMARK  257  A    between atoms: _627  and  _628
REMARK  258  A    between atoms: _633  and  _635
REMARK  259  A    between atoms: _635  and  _636
REMARK  260  A    between atoms: _635  and  _638
REMARK  261  A    between atoms: _638  and  _639
REMARK  262  A    between atoms: _642  and  _644
REMARK  263  A    between atoms: _644  and  _645
REMARK  264  A    between atoms: _647  and  _649
REMARK  265  A    between atoms: _649  and  _650
REMARK  266  A    between atoms: _653  and  _655
REMARK  267  A    between atoms: _655  and  _656
REMARK  268  A    between atoms: _655  and  _658
REMARK  269  A    between atoms: _658  and  _659
REMARK  270  A    between atoms: _664  and  _665
REMARK                            x       y       z     vdW  Elec       q    Type
REMARK                         _______ _______ _______ _____ _____    ______ ____
ROOT
ATOM      1  CB  HIS A   1      37.998  18.582  20.133  0.00  0.00    +0.072 C 
ENDROOT
BRANCH   1   2
ATOM      2  CG  HIS A   1      38.654  18.732  21.466  0.00  0.00    +0.082 A 
ATOM      3  CD2 HIS A   1      38.564  17.989  22.594  0.00  0.00    +0.115 A 
ATOM      4  NE2 HIS A   1      39.379  18.580  23.539  0.00  0.00    -0.221 NA
ATOM      5  CE1 HIS A   1      39.962  19.637  23.005  0.00  0.00    +0.199 A 
ATOM      6  ND1 HIS A   1      39.560  19.737  21.746  0.00  0.00    -0.227 NA
ENDBRANCH   1   2
BRANCH   1   7
ATOM      7  CA  HIS A   1      38.994  18.427  18.963  0.00  0.00    +0.139 C 
BRANCH   7   8
ATOM      8  N   HIS A   1      38.308  17.911  17.785  0.00  0.00    -0.239 NA
ATOM      9  H   HIS A   1      37.332  17.573  17.904  0.00  0.00    +0.142 HD
ENDBRANCH   7   8
BRANCH   7  10
ATOM     10  C   HIS A   1      40.138  17.459  19.336  0.00  0.00    +0.224 C 
ATOM     11  O   HIS A   1      41.279  17.901  19.602  0.00  0.00    -0.287 OA
ENDBRANCH   7  10
ENDBRANCH   1   7
TORSDOF 4
REMARK  Name = ../refined-set-2016/4el0/4el0_pocket.pdb
REMARK  270 active torsions:
REMARK  status: ('A' for Active; 'I' for Inactive)
REMARK    1  A    between atoms: _1  and  _3
REMARK    2  A    between atoms: _3  and  _4
REMARK    3  A    between atoms: _3  and  _6
REMARK    4  A    between atoms: _6  and  _7
REMARK    5  A    between atoms: _12  and  _13
REMARK    6  A    between atoms: _15  and  _17
REMARK    7  A    between atoms: _17  and  _18
REMARK    8  A    between atoms: _17  and  _20
REMARK    9  A    between atoms: _20  and  _21
REMARK   10  A    between atoms: _21  and  _22
REMARK   11  A    between atoms: _25  and  _27
REMARK   12  A    between atoms: _27  and  _28
REMARK   13  A    between atoms: _27  and  _30
REMARK   14  A    between atoms: _30  and  _31
REMARK   15  A    between atoms: _36  and  _38
REMARK   16  A    between atoms: _38  and  _39
REMARK   17  A    between atoms: _41  and  _43
REMARK   18  A    between atoms: _43  and  _44
REMARK   19  A    between atoms: _46  and  _48
REMARK   20  A    between atoms: _48  and  _49
REMARK   21  A    between atoms: _48  and  _51
REMARK   22  A    between atoms: _51  and  _52
REMARK   23  A    between atoms: _55  and  _57
REMARK   24  A    between atoms: _57  and  _58
REMARK   25  A    between atoms: _60  and  _62
REMARK   26  A    between atoms: _62  and  _63
REMARK   27  A    between atoms: _62  and  _65
REMARK   28  A    between atoms: _66  and  _67
REMARK   29  A    between atoms: _67  and  _68
REMARK   30  A    between atoms: _77  and  _79
REMARK   31  A    between atoms: _79  and  _80
REMARK   32  A    between atoms: _79  and  _82
REMARK   33  A    between atoms: _82  and  _83
REMARK   34  A    between atoms: _86  and  _88
REMARK   35  A    between atoms: _88  and  _89
REMARK   36  A    between atoms: _92  and  _94
REMARK   37  A    between atoms: _94  and  _95
REMARK   38  A    between atoms: _94  and  _97
REMARK   39  A    between atoms: _97  and  _98
REMARK   40  A    between atoms: _104  and  _106
REMARK   41  A    between atoms: _106  and  _107
REMARK   42  A    between atoms: _106  and  _109
REMARK   43  A    between atoms: _109  and  _110
REMARK   44  A    between atoms: _115  and  _117
REMARK   45  A    between atoms: _117  and  _118
REMARK   46  A    between atoms: _117  and  _120
REMARK   47  A    between atoms: _120  and  _121
REMARK   48  A    between atoms: _124  and  _126
REMARK   49  A    between atoms: _126  and  _127
REMARK   50  A    between atoms: _126  and  _129
REMARK   51  A    between atoms: _129  and  _130
REMARK   52  A    between atoms: _135  and  _137
REMARK   53  A    between atoms: _137  and  _138
REMARK   54  A    between atoms: _137  and  _140
REMARK   55  A    between atoms: _140  and  _141
REMARK   56  A    between atoms: _147  and  _149
REMARK   57  A    between atoms: _149  and  _150
REMARK   58  A    between atoms: _149  and  _152
REMARK   59  A    between atoms: _152  and  _153
REMARK   60  A    between atoms: _159  and  _161
REMARK   61  A    between atoms: _161  and  _162
REMARK   62  A    between atoms: _161  and  _164
REMARK   63  A    between atoms: _164  and  _165
REMARK   64  A    between atoms: _165  and  _166
REMARK   65  A    between atoms: _169  and  _171
REMARK   66  A    between atoms: _171  and  _172
REMARK   67  A    between atoms: _171  and  _174
REMARK   68  A    between atoms: _174  and  _175
REMARK   69  A    between atoms: _175  and  _176
REMARK   70  A    between atoms: _176  and  _177
REMARK   71  A    between atoms: _186  and  _188
REMARK   72  A    between atoms: _188  and  _189
REMARK   73  A    between atoms: _188  and  _191
REMARK   74  A    between atoms: _191  and  _192
REMARK   75  A    between atoms: _192  and  _193
REMARK   76  A    between atoms: _196  and  _198
REMARK   77  A    between atoms: _198  and  _199
REMARK   78  A    between atoms: _198  and  _201
REMARK   79  A    between atoms: _201  and  _202
REMARK   80  A    between atoms: _207  and  _209
REMARK   81  A    between atoms: _209  and  _210
REMARK   82  A    between atoms: _209  and  _212
REMARK   83  A    between atoms: _212  and  _213
REMARK   84  A    between atoms: _216  and  _218
REMARK   85  A    between atoms: _218  and  _219
REMARK   86  A    between atoms: _218  and  _221
REMARK   87  A    between atoms: _221  and  _222
REMARK   88  A    between atoms: _225  and  _227
REMARK   89  A    between atoms: _227  and  _228
REMARK   90  A    between atoms: _227  and  _230
REMARK   91  A    between atoms: _230  and  _231
REMARK   92  A    between atoms: _236  and  _238
REMARK   93  A    between atoms: _238  and  _239
REMARK   94  A    between atoms: _238  and  _241
REMARK   95  A    between atoms: _241  and  _242
REMARK   96  A    between atoms: _247  and  _248
REMARK   97  A    between atoms: _250  and  _252
REMARK   98  A    between atoms: _252  and  _253
REMARK   99  A    between atoms: _252  and  _255
REMARK  100  A    between atoms: _255  and  _256
REMARK  101  A    between atoms: _259  and  _261
REMARK  102  A    between atoms: _261  and  _262
REMARK  103  A    between atoms: _261  and  _264
REMARK  104  A    between atoms: _264  and  _265
REMARK  105  A    between atoms: _270  and  _272
REMARK  106  A    between atoms: _272  and  _273
REMARK  107  A    between atoms: _272  and  _275
REMARK  108  A    between atoms: _275  and  _276
REMARK  109  A    between atoms: _281  and  _283
REMARK  110  A    between atoms: _283  and  _284
REMARK  111  A    between atoms: _283  and  _286
REMARK  112  A    between atoms: _286  and  _287
REMARK  113  A    between atoms: _290  and  _292
REMARK  114  A    between atoms: _292  and  _293
REMARK  115  A    between atoms: _292  and  _295
REMARK  116  A    between atoms: _298  and  _300
REMARK  117  A    between atoms: _300  and  _301
REMARK  118  A    between atoms: _300  and  _303
REMARK  119  A    between atoms: _303  and  _304
REMARK  120  A    between atoms: _307  and  _309
REMARK  121  A    between atoms: _309  and  _310
REMARK  122  A    between atoms: _309  and  _312
REMARK  123  A    between atoms: _312  and  _313
REMARK  124  A    between atoms: _313  and  _314
REMARK  125  A    between atoms: _317  and  _319
REMARK  126  A    between atoms: _319  and  _320
REMARK  127  A    between atoms: _323  and  _325
REMARK  128  A    between atoms: _325  and  _326
REMARK  129  A    between atoms: _325  and  _328
REMARK  130  A    between atoms: _328  and  _329
REMARK  131  A    between atoms: _332  and  _334
REMARK  132  A    between atoms: _334  and  _335
REMARK  133  A    between atoms: _334  and  _337
REMARK  134  A    between atoms: _337  and  _338
REMARK  135  A    between atoms: _338  and  _339
REMARK  136  A    between atoms: _342  and  _344
REMARK  137  A    between atoms: _344  and  _345
REMARK  138  A    between atoms: _344  and  _347
REMARK  139  A    between atoms: _347  and  _348
REMARK  140  A    between atoms: _348  and  _349
REMARK  141  A    between atoms: _349  and  _350
REMARK  142  A    between atoms: _359  and  _361
REMARK  143  A    between atoms: _361  and  _362
REMARK  144  A    between atoms: _361  and  _364
REMARK  145  A    between atoms: _364  and  _365
REMARK  146  A    between atoms: _375  and  _377
REMARK  147  A    between atoms: _377  and  _378
REMARK  148  A    between atoms: _377  and  _380
REMARK  149  A    between atoms: _380  and  _381
REMARK  150  A    between atoms: _381  and  _382
REMARK  151  A    between atoms: _384  and  _386
REMARK  152  A    between atoms: _386  and  _387
REMARK  153  A    between atoms: _390  and  _392
REMARK  154  A    between atoms: _392  and  _393
REMARK  155  A    between atoms: _392  and  _395
REMARK  156  A    between atoms: _395  and  _396
REMARK  157  A    between atoms: _401  and  _403
REMARK  158  A    between atoms: _403  and  _404
REMARK  159  A    between atoms: _406  and  _408
REMARK  160  A    between atoms: _408  and  _409
REMARK  161  A    between atoms: _408  and  _411
REMARK  162  A    between atoms: _414  and  _416
REMARK  163  A    between atoms: _416  and  _417
REMARK  164  A    between atoms: _420  and  _422
REMARK  165  A    between atoms: _422  and  _423
REMARK  166  A    between atoms: _422  and  _425
REMARK  167  A    between atoms: _425  and  _426
REMARK  168  A    between atoms: _431  and  _433
REMARK  169  A    between atoms: _433  and  _434
REMARK  170  A    between atoms: _433  and  _436
REMARK  171  A    between atoms: _436  and  _437
REMARK  172  A    between atoms: _437  and  _438
REMARK  173  A    between atoms: _438  and  _439
REMARK  174  A    between atoms: _439  and  _440
REMARK  175  A    between atoms: _444  and  _446
REMARK  176  A    between atoms: _446  and  _447
REMARK  177  A    between atoms: _446  and  _449
REMARK  178  A    between atoms: _449  and  _450
REMARK  179  A    between atoms: _453  and  _455
REMARK  180  A    between atoms: _455  and  _456
REMARK  181  A    between atoms: _455  and  _458
REMARK  182  A    between atoms: _458  and  _459
REMARK  183  A    between atoms: _464  and  _466
REMARK  184  A    between atoms: _466  and  _467
REMARK  185  A    between atoms: _469  and  _471
REMARK  186  A    between atoms: _471  and  _472
REMARK  187  A    between atoms: _471  and  _474
REMARK  188  A    between atoms: _474  and  _475
REMARK  189  A    between atoms: _475  and  _476
REMARK  190  A    between atoms: _476  and  _477
REMARK  191  A    between atoms: _477  and  _478
REMARK  192  A    between atoms: _482  and  _484
REMARK  193  A    between atoms: _484  and  _485
REMARK  194  A    between atoms: _484  and  _487
REMARK  195  A    between atoms: _487  and  _488
REMARK  196  A    between atoms: _488  and  _489
REMARK  197  A    between atoms: _489  and  _490
REMARK  198  A    between atoms: _499  and  _501
REMARK  199  A    between atoms: _501  and  _502
REMARK  200  A    between atoms: _501  and  _504
REMARK  201  A    between atoms: _504  and  _505
REMARK  202  A    between atoms: _510  and  _511
REMARK  203  A    between atoms: _513  and  _515
REMARK  204  A    between atoms: _515  and  _516
REMARK  205  A    between atoms: _515  and  _518
REMARK  206  A    between atoms: _518  and  _519
REMARK  207  A    between atoms: _519  and  _520
REMARK  208  A    between atoms: _520  and  _521
REMARK  209  A    between atoms: _521  and  _522
REMARK  210  A    between atoms: _526  and  _528
REMARK  211  A    between atoms: _528  and  _529
REMARK  212  A    between atoms: _528  and  _531
REMARK  213  A    between atoms: _531  and  _532
REMARK  214  A    between atoms: _534  and  _536
REMARK  215  A    between atoms: _536  and  _537
REMARK  216  A    between atoms: _536  and  _539
REMARK  217  A    between atoms: _539  and  _540
REMARK  218  A    between atoms: _543  and  _545
REMARK  219  A    between atoms: _545  and  _546
REMARK  220  A    between atoms: _545  and  _548
REMARK  221  A    between atoms: _548  and  _549
REMARK  222  A    between atoms: _549  and  _550
REMARK  223  A    between atoms: _553  and  _555
REMARK  224  A    between atoms: _555  and  _556
REMARK  225  A    between atoms: _559  and  _561
REMARK  226  A    between atoms: _561  and  _562
REMARK  227  A    between atoms: _561  and  _564
REMARK  228  A    between atoms: _564  and  _565
REMARK  229  A    between atoms: _567  and  _569
REMARK  230  A    between atoms: _569  and  _570
REMARK  231  A    between atoms: _572  and  _574
REMARK  232  A    between atoms: _574  and  _575
REMARK  233  A    between atoms: _574  and  _577
REMARK  234  A    between atoms: _577  and  _578
REMARK  235  A    between atoms: _581  and  _583
REMARK  236  A    between atoms: _583  and  _584
REMARK  237  A    between atoms: _586  and  _588
REMARK  238  A    between atoms: _588  and  _589
REMARK  239  A    between atoms: _588  and  _591
REMARK  240  A    between atoms: _591  and  _592
REMARK  241  A    between atoms: _597  and  _599
REMARK  242  A    between atoms: _599  and  _600
REMARK  243  A    between atoms: _599  and  _602
REMARK  244  A    between atoms: _602  and  _603
REMARK  245  A    between atoms: _603  and  _604
REMARK  246  A    between atoms: _611  and  _612
REMARK  247  A    between atoms: _612  and  _628
REMARK  248  A    between atoms: _613  and  _615
REMARK  249  A    between atoms: _615  and  _616
REMARK  250  A    between atoms: _616  and  _617
REMARK  251  A    between atoms: _621  and  _623
REMARK  252  A    between atoms: _623  and  _624
REMARK  253  A    between atoms: _623  and  _631
REMARK  254  A    between atoms: _624  and  _625
REMARK  255  A    between atoms: _625  and  _626
REMARK  256  A    between atoms: _626  and  _627
REMARK  257  A    between atoms: _627  and  _628
REMARK  258  A    between atoms: _633  and  _635
REMARK  259  A    between atoms: _635  and  _636
REMARK  260  A    between atoms: _635  and  _638
REMARK  261  A    between atoms: _638  and  _639
REMARK  262  A    between atoms: _642  and  _644
REMARK  263  A    between atoms: _644  and  _645
REMARK  264  A    between atoms: _647  and  _649
REMARK  265  A    between atoms: _649  and  _650
REMARK  266  A    between atoms: _653  and  _655
REMARK  267  A    between atoms: _655  and  _656
REMARK  268  A    between atoms: _655  and  _658
REMARK  269  A    between atoms: _658  and  _659
REMARK  270  A    between atoms: _664  and  _665
REMARK                            x       y       z     vdW  Elec       q    Type
REMARK                         _______ _______ _______ _____ _____    ______ ____
ROOT
ATOM      1  CA  THR A   2      32.701  12.415  21.563  0.00  0.00    +0.176 C 
ENDROOT
BRANCH   1   4
ATOM      2  C   LYS A   1      34.366  11.323  22.930  0.00  0.00    +0.238 C 
ATOM      3  O   LYS A   1      34.351  12.249  23.730  0.00  0.00    -0.274 OA
ATOM      4  N   THR A   2      33.652  11.340  21.828  0.00  0.00    -0.295 N 
ATOM      5  H   THR A   2      33.766  10.575  21.133  0.00  0.00    +0.150 HD
BRANCH   2   6
ATOM      6  CA  LYS A   1      35.278  10.149  23.152  0.00  0.00    +0.145 C 
BRANCH   6   7
ATOM      7  N   LYS A   1      36.577  10.614  22.662  0.00  0.00    -0.238 NA
ATOM      8  H   LYS A   1      36.882  11.589  22.856  0.00  0.00    +0.142 HD
ENDBRANCH   6   7
BRANCH   6   9
ATOM      9  CB  LYS A   1      35.324   9.846  24.664  0.00  0.00    +0.026 C 
BRANCH   9  10
ATOM     10  CG  LYS A   1      36.229   8.668  25.051  0.00  0.00    -0.000 C 
BRANCH  10  11
ATOM     11  CD  LYS A   1      35.727   7.316  24.452  0.00  0.00    -0.024 C 
BRANCH  11  12
ATOM     12  CE  LYS A   1      36.687   6.165  24.697  0.00  0.00    -0.086 C 
BRANCH  12  13
ATOM     13  NZ  LYS A   1      37.584   6.125  23.484  0.00  0.00    +0.380 N 
ATOM     14  HZ1 LYS A   1      38.272   5.352  23.588  0.00  0.00    -0.089 HD
ATOM     15  HZ2 LYS A   1      38.089   7.030  23.398  0.00  0.00    -0.089 HD
ATOM     16  HZ3 LYS A   1      37.008   5.966  22.633  0.00  0.00    -0.089 HD
ENDBRANCH  12  13
ENDBRANCH  11  12
ENDBRANCH  10  11
ENDBRANCH   9  10
ENDBRANCH   6   9
ENDBRANCH   2   6
ENDBRANCH   1   4
BRANCH   1  17
ATOM     17  C   THR A   2      31.627  12.494  22.664  0.00  0.00    +0.243 C 
ATOM     18  N   ASN A   3      31.308  13.709  23.098  0.00  0.00    -0.297 N 
ATOM     19  H   ASN A   3      31.770  14.520  22.640  0.00  0.00    +0.150 HD
ATOM     20  O   THR A   2      31.115  11.479  23.083  0.00  0.00    -0.273 OA
BRANCH  18  21
ATOM     21  CA  ASN A   3      30.375  13.984  24.151  0.00  0.00    +0.158 C 
BRANCH  21  22
ATOM     22  C   ASN A   3      28.979  13.476  23.712  0.00  0.00    +0.241 C 
ATOM     23  N   GLY A   4      28.042  13.462  24.652  0.00  0.00    -0.296 N 
ATOM     24  H   GLY A   4      28.325  13.788  25.598  0.00  0.00    +0.150 HD
ATOM     25  O   ASN A   3      28.803  13.087  22.554  0.00  0.00    -0.273 OA
BRANCH  23  26
ATOM     26  CA  GLY A   4      26.666  13.039  24.495  0.00  0.00    +0.163 C 
BRANCH  26  27
ATOM     27  C   GLY A   4      25.905  13.757  25.632  0.00  0.00    +0.229 C 
ATOM     28  O   GLY A   4      26.516  14.462  26.460  0.00  0.00    -0.286 OA
ENDBRANCH  26  27
ENDBRANCH  23  26
ENDBRANCH  21  22
BRANCH  21  29
ATOM     29  CB  ASN A   3      30.393  15.485  24.420  0.00  0.00    +0.114 C 
BRANCH  29  30
ATOM     30  CG  ASN A   3      31.563  15.927  25.379  0.00  0.00    +0.222 C 
ATOM     31  ND2 ASN A   3      32.221  14.968  26.016  0.00  0.00    -0.329 N 
ATOM     32 HD21 ASN A   3      32.964  15.214  26.701  0.00  0.00    +0.145 HD
ATOM     33 HD22 ASN A   3      31.994  13.970  25.831  0.00  0.00    +0.145 HD
ATOM     34  OD1 ASN A   3      31.803  17.142  25.570  0.00  0.00    -0.275 OA
ENDBRANCH  29  30
ENDBRANCH  21  29
ENDBRANCH  18  21
ENDBRANCH   1  17
BRANCH   1  35
ATOM     35  CB  THR A   2      32.007  12.154  20.193  0.00  0.00    +0.137 C 
ATOM     36  CG2 THR A   2      31.027  13.273  19.811  0.00  0.00    +0.034 C 
BRANCH  35  37
ATOM     37  OG1 THR A   2      33.031  12.001  19.201  0.00  0.00    -0.382 OA
ATOM     38  HG1 THR A   2      32.613  11.834  18.320  0.00  0.00    +0.210 HD
ENDBRANCH  35  37
ENDBRANCH   1  35
TORSDOF 17
REMARK  Name = ../refined-set-2016/4el0/4el0_pocket.pdb
REMARK  270 active torsions:
REMARK  status: ('A' for Active; 'I' for Inactive)
REMARK    1  A    between atoms: _1  and  _3
REMARK    2  A    between atoms: _3  and  _4
REMARK    3  A    between atoms: _3  and  _6
REMARK    4  A    between atoms: _6  and  _7
REMARK    5  A    between atoms: _12  and  _13
REMARK    6  A    between atoms: _15  and  _17
REMARK    7  A    between atoms: _17  and  _18
REMARK    8  A    between atoms: _17  and  _20
REMARK    9  A    between atoms: _20  and  _21
REMARK   10  A    between atoms: _21  and  _22
REMARK   11  A    between atoms: _25  and  _27
REMARK   12  A    between atoms: _27  and  _28
REMARK   13  A    between atoms: _27  and  _30
REMARK   14  A    between atoms: _30  and  _31
REMARK   15  A    between atoms: _36  and  _38
REMARK   16  A    between atoms: _38  and  _39
REMARK   17  A    between atoms: _41  and  _43
REMARK   18  A    between atoms: _43  and  _44
REMARK   19  A    between atoms: _46  and  _48
REMARK   20  A    between atoms: _48  and  _49
REMARK   21  A    between atoms: _48  and  _51
REMARK   22  A    between atoms: _51  and  _52
REMARK   23  A    between atoms: _55  and  _57
REMARK   24  A    between atoms: _57  and  _58
REMARK   25  A    between atoms: _60  and  _62
REMARK   26  A    between atoms: _62  and  _63
REMARK   27  A    between atoms: _62  and  _65
REMARK   28  A    between atoms: _66  and  _67
REMARK   29  A    between atoms: _67  and  _68
REMARK   30  A    between atoms: _77  and  _79
REMARK   31  A    between atoms: _79  and  _80
REMARK   32  A    between atoms: _79  and  _82
REMARK   33  A    between atoms: _82  and  _83
REMARK   34  A    between atoms: _86  and  _88
REMARK   35  A    between atoms: _88  and  _89
REMARK   36  A    between atoms: _92  and  _94
REMARK   37  A    between atoms: _94  and  _95
REMARK   38  A    between atoms: _94  and  _97
REMARK   39  A    between atoms: _97  and  _98
REMARK   40  A    between atoms: _104  and  _106
REMARK   41  A    between atoms: _106  and  _107
REMARK   42  A    between atoms: _106  and  _109
REMARK   43  A    between atoms: _109  and  _110
REMARK   44  A    between atoms: _115  and  _117
REMARK   45  A    between atoms: _117  and  _118
REMARK   46  A    between atoms: _117  and  _120
REMARK   47  A    between atoms: _120  and  _121
REMARK   48  A    between atoms: _124  and  _126
REMARK   49  A    between atoms: _126  and  _127
REMARK   50  A    between atoms: _126  and  _129
REMARK   51  A    between atoms: _129  and  _130
REMARK   52  A    between atoms: _135  and  _137
REMARK   53  A    between atoms: _137  and  _138
REMARK   54  A    between atoms: _137  and  _140
REMARK   55  A    between atoms: _140  and  _141
REMARK   56  A    between atoms: _147  and  _149
REMARK   57  A    between atoms: _149  and  _150
REMARK   58  A    between atoms: _149  and  _152
REMARK   59  A    between atoms: _152  and  _153
REMARK   60  A    between atoms: _159  and  _161
REMARK   61  A    between atoms: _161  and  _162
REMARK   62  A    between atoms: _161  and  _164
REMARK   63  A    between atoms: _164  and  _165
REMARK   64  A    between atoms: _165  and  _166
REMARK   65  A    between atoms: _169  and  _171
REMARK   66  A    between atoms: _171  and  _172
REMARK   67  A    between atoms: _171  and  _174
REMARK   68  A    between atoms: _174  and  _175
REMARK   69  A    between atoms: _175  and  _176
REMARK   70  A    between atoms: _176  and  _177
REMARK   71  A    between atoms: _186  and  _188
REMARK   72  A    between atoms: _188  and  _189
REMARK   73  A    between atoms: _188  and  _191
REMARK   74  A    between atoms: _191  and  _192
REMARK   75  A    between atoms: _192  and  _193
REMARK   76  A    between atoms: _196  and  _198
REMARK   77  A    between atoms: _198  and  _199
REMARK   78  A    between atoms: _198  and  _201
REMARK   79  A    between atoms: _201  and  _202
REMARK   80  A    between atoms: _207  and  _209
REMARK   81  A    between atoms: _209  and  _210
REMARK   82  A    between atoms: _209  and  _212
REMARK   83  A    between atoms: _212  and  _213
REMARK   84  A    between atoms: _216  and  _218
REMARK   85  A    between atoms: _218  and  _219
REMARK   86  A    between atoms: _218  and  _221
REMARK   87  A    between atoms: _221  and  _222
REMARK   88  A    between atoms: _225  and  _227
REMARK   89  A    between atoms: _227  and  _228
REMARK   90  A    between atoms: _227  and  _230
REMARK   91  A    between atoms: _230  and  _231
REMARK   92  A    between atoms: _236  and  _238
REMARK   93  A    between atoms: _238  and  _239
REMARK   94  A    between atoms: _238  and  _241
REMARK   95  A    between atoms: _241  and  _242
REMARK   96  A    between atoms: _247  and  _248
REMARK   97  A    between atoms: _250  and  _252
REMARK   98  A    between atoms: _252  and  _253
REMARK   99  A    between atoms: _252  and  _255
REMARK  100  A    between atoms: _255  and  _256
REMARK  101  A    between atoms: _259  and  _261
REMARK  102  A    between atoms: _261  and  _262
REMARK  103  A    between atoms: _261  and  _264
REMARK  104  A    between atoms: _264  and  _265
REMARK  105  A    between atoms: _270  and  _272
REMARK  106  A    between atoms: _272  and  _273
REMARK  107  A    between atoms: _272  and  _275
REMARK  108  A    between atoms: _275  and  _276
REMARK  109  A    between atoms: _281  and  _283
REMARK  110  A    between atoms: _283  and  _284
REMARK  111  A    between atoms: _283  and  _286
REMARK  112  A    between atoms: _286  and  _287
REMARK  113  A    between atoms: _290  and  _292
REMARK  114  A    between atoms: _292  and  _293
REMARK  115  A    between atoms: _292  and  _295
REMARK  116  A    between atoms: _298  and  _300
REMARK  117  A    between atoms: _300  and  _301
REMARK  118  A    between atoms: _300  and  _303
REMARK  119  A    between atoms: _303  and  _304
REMARK  120  A    between atoms: _307  and  _309
REMARK  121  A    between atoms: _309  and  _310
REMARK  122  A    between atoms: _309  and  _312
REMARK  123  A    between atoms: _312  and  _313
REMARK  124  A    between atoms: _313  and  _314
REMARK  125  A    between atoms: _317  and  _319
REMARK  126  A    between atoms: _319  and  _320
REMARK  127  A    between atoms: _323  and  _325
REMARK  128  A    between atoms: _325  and  _326
REMARK  129  A    between atoms: _325  and  _328
REMARK  130  A    between atoms: _328  and  _329
REMARK  131  A    between atoms: _332  and  _334
REMARK  132  A    between atoms: _334  and  _335
REMARK  133  A    between atoms: _334  and  _337
REMARK  134  A    between atoms: _337  and  _338
REMARK  135  A    between atoms: _338  and  _339
REMARK  136  A    between atoms: _342  and  _344
REMARK  137  A    between atoms: _344  and  _345
REMARK  138  A    between atoms: _344  and  _347
REMARK  139  A    between atoms: _347  and  _348
REMARK  140  A    between atoms: _348  and  _349
REMARK  141  A    between atoms: _349  and  _350
REMARK  142  A    between atoms: _359  and  _361
REMARK  143  A    between atoms: _361  and  _362
REMARK  144  A    between atoms: _361  and  _364
REMARK  145  A    between atoms: _364  and  _365
REMARK  146  A    between atoms: _375  and  _377
REMARK  147  A    between atoms: _377  and  _378
REMARK  148  A    between atoms: _377  and  _380
REMARK  149  A    between atoms: _380  and  _381
REMARK  150  A    between atoms: _381  and  _382
REMARK  151  A    between atoms: _384  and  _386
REMARK  152  A    between atoms: _386  and  _387
REMARK  153  A    between atoms: _390  and  _392
REMARK  154  A    between atoms: _392  and  _393
REMARK  155  A    between atoms: _392  and  _395
REMARK  156  A    between atoms: _395  and  _396
REMARK  157  A    between atoms: _401  and  _403
REMARK  158  A    between atoms: _403  and  _404
REMARK  159  A    between atoms: _406  and  _408
REMARK  160  A    between atoms: _408  and  _409
REMARK  161  A    between atoms: _408  and  _411
REMARK  162  A    between atoms: _414  and  _416
REMARK  163  A    between atoms: _416  and  _417
REMARK  164  A    between atoms: _420  and  _422
REMARK  165  A    between atoms: _422  and  _423
REMARK  166  A    between atoms: _422  and  _425
REMARK  167  A    between atoms: _425  and  _426
REMARK  168  A    between atoms: _431  and  _433
REMARK  169  A    between atoms: _433  and  _434
REMARK  170  A    between atoms: _433  and  _436
REMARK  171  A    between atoms: _436  and  _437
REMARK  172  A    between atoms: _437  and  _438
REMARK  173  A    between atoms: _438  and  _439
REMARK  174  A    between atoms: _439  and  _440
REMARK  175  A    between atoms: _444  and  _446
REMARK  176  A    between atoms: _446  and  _447
REMARK  177  A    between atoms: _446  and  _449
REMARK  178  A    between atoms: _449  and  _450
REMARK  179  A    between atoms: _453  and  _455
REMARK  180  A    between atoms: _455  and  _456
REMARK  181  A    between atoms: _455  and  _458
REMARK  182  A    between atoms: _458  and  _459
REMARK  183  A    between atoms: _464  and  _466
REMARK  184  A    between atoms: _466  and  _467
REMARK  185  A    between atoms: _469  and  _471
REMARK  186  A    between atoms: _471  and  _472
REMARK  187  A    between atoms: _471  and  _474
REMARK  188  A    between atoms: _474  and  _475
REMARK  189  A    between atoms: _475  and  _476
REMARK  190  A    between atoms: _476  and  _477
REMARK  191  A    between atoms: _477  and  _478
REMARK  192  A    between atoms: _482  and  _484
REMARK  193  A    between atoms: _484  and  _485
REMARK  194  A    between atoms: _484  and  _487
REMARK  195  A    between atoms: _487  and  _488
REMARK  196  A    between atoms: _488  and  _489
REMARK  197  A    between atoms: _489  and  _490
REMARK  198  A    between atoms: _499  and  _501
REMARK  199  A    between atoms: _501  and  _502
REMARK  200  A    between atoms: _501  and  _504
REMARK  201  A    between atoms: _504  and  _505
REMARK  202  A    between atoms: _510  and  _511
REMARK  203  A    between atoms: _513  and  _515
REMARK  204  A    between atoms: _515  and  _516
REMARK  205  A    between atoms: _515  and  _518
REMARK  206  A    between atoms: _518  and  _519
REMARK  207  A    between atoms: _519  and  _520
REMARK  208  A    between atoms: _520  and  _521
REMARK  209  A    between atoms: _521  and  _522
REMARK  210  A    between atoms: _526  and  _528
REMARK  211  A    between atoms: _528  and  _529
REMARK  212  A    between atoms: _528  and  _531
REMARK  213  A    between atoms: _531  and  _532
REMARK  214  A    between atoms: _534  and  _536
REMARK  215  A    between atoms: _536  and  _537
REMARK  216  A    between atoms: _536  and  _539
REMARK  217  A    between atoms: _539  and  _540
REMARK  218  A    between atoms: _543  and  _545
REMARK  219  A    between atoms: _545  and  _546
REMARK  220  A    between atoms: _545  and  _548
REMARK  221  A    between atoms: _548  and  _549
REMARK  222  A    between atoms: _549  and  _550
REMARK  223  A    between atoms: _553  and  _555
REMARK  224  A    between atoms: _555  and  _556
REMARK  225  A    between atoms: _559  and  _561
REMARK  226  A    between atoms: _561  and  _562
REMARK  227  A    between atoms: _561  and  _564
REMARK  228  A    between atoms: _564  and  _565
REMARK  229  A    between atoms: _567  and  _569
REMARK  230  A    between atoms: _569  and  _570
REMARK  231  A    between atoms: _572  and  _574
REMARK  232  A    between atoms: _574  and  _575
REMARK  233  A    between atoms: _574  and  _577
REMARK  234  A    between atoms: _577  and  _578
REMARK  235  A    between atoms: _581  and  _583
REMARK  236  A    between atoms: _583  and  _584
REMARK  237  A    between atoms: _586  and  _588
REMARK  238  A    between atoms: _588  and  _589
REMARK  239  A    between atoms: _588  and  _591
REMARK  240  A    between atoms: _591  and  _592
REMARK  241  A    between atoms: _597  and  _599
REMARK  242  A    between atoms: _599  and  _600
REMARK  243  A    between atoms: _599  and  _602
REMARK  244  A    between atoms: _602  and  _603
REMARK  245  A    between atoms: _603  and  _604
REMARK  246  A    between atoms: _611  and  _612
REMARK  247  A    between atoms: _612  and  _628
REMARK  248  A    between atoms: _613  and  _615
REMARK  249  A    between atoms: _615  and  _616
REMARK  250  A    between atoms: _616  and  _617
REMARK  251  A    between atoms: _621  and  _623
REMARK  252  A    between atoms: _623  and  _624
REMARK  253  A    between atoms: _623  and  _631
REMARK  254  A    between atoms: _624  and  _625
REMARK  255  A    between atoms: _625  and  _626
REMARK  256  A    between atoms: _626  and  _627
REMARK  257  A    between atoms: _627  and  _628
REMARK  258  A    between atoms: _633  and  _635
REMARK  259  A    between atoms: _635  and  _636
REMARK  260  A    between atoms: _635  and  _638
REMARK  261  A    between atoms: _638  and  _639
REMARK  262  A    between atoms: _642  and  _644
REMARK  263  A    between atoms: _644  and  _645
REMARK  264  A    between atoms: _647  and  _649
REMARK  265  A    between atoms: _649  and  _650
REMARK  266  A    between atoms: _653  and  _655
REMARK  267  A    between atoms: _655  and  _656
REMARK  268  A    between atoms: _655  and  _658
REMARK  269  A    between atoms: _658  and  _659
REMARK  270  A    between atoms: _664  and  _665
REMARK                            x       y       z     vdW  Elec       q    Type
REMARK                         _______ _______ _______ _____ _____    ______ ____
ROOT
ATOM      1  C   LYS A   1      26.105  30.305  27.269  0.00  0.00    +0.238 C 
ATOM      2  N   ARG A   2      27.187  29.949  27.953  0.00  0.00    -0.298 N 
ATOM      3  H   ARG A   2      27.511  28.961  27.990  0.00  0.00    +0.150 HD
ATOM      4  O   LYS A   1      25.706  31.507  27.254  0.00  0.00    -0.274 OA
ENDROOT
BRANCH   1   5
ATOM      5  CA  LYS A   1      25.358  29.209  26.489  0.00  0.00    +0.145 C 
BRANCH   5   6
ATOM      6  N   LYS A   1      24.038  29.745  26.100  0.00  0.00    -0.238 NA
ATOM      7  H   LYS A   1      23.759  30.665  26.498  0.00  0.00    +0.142 HD
ENDBRANCH   5   6
BRANCH   5   8
ATOM      8  CB  LYS A   1      26.169  28.730  25.267  0.00  0.00    +0.026 C 
BRANCH   8   9
ATOM      9  CG  LYS A   1      26.646  29.840  24.331  0.00  0.00    -0.000 C 
BRANCH   9  10
ATOM     10  CD  LYS A   1      26.352  29.567  22.859  0.00  0.00    -0.024 C 
BRANCH  10  11
ATOM     11  CE  LYS A   1      27.001  28.364  22.287  0.00  0.00    -0.086 C 
BRANCH  11  12
ATOM     12  NZ  LYS A   1      26.212  27.251  21.967  0.00  0.00    +0.380 N 
ATOM     13  HZ1 LYS A   1      25.736  26.907  22.825  0.00  0.00    -0.089 HD
ATOM     14  HZ2 LYS A   1      26.817  26.499  21.579  0.00  0.00    -0.089 HD
ATOM     15  HZ3 LYS A   1      25.500  27.524  21.260  0.00  0.00    -0.089 HD
ENDBRANCH  11  12
ENDBRANCH  10  11
ENDBRANCH   9  10
ENDBRANCH   8   9
ENDBRANCH   5   8
ENDBRANCH   1   5
BRANCH   2  16
ATOM     16  CA  ARG A   2      27.901  31.022  28.653  0.00  0.00    +0.137 C 
BRANCH  16  17
ATOM     17  C   ARG A   2      28.357  32.095  27.614  0.00  0.00    +0.227 C 
ATOM     18  O   ARG A   2      28.617  31.750  26.406  0.00  0.00    -0.286 OA
ENDBRANCH  16  17
BRANCH  16  19
ATOM     19  CB  ARG A   2      29.063  30.478  29.478  0.00  0.00    +0.031 C 
BRANCH  19  20
ATOM     20  CG  ARG A   2      28.614  29.596  30.605  0.00  0.00    +0.045 C 
BRANCH  20  21
ATOM     21  CD  ARG A   2      28.105  30.414  31.767  0.00  0.00    +0.174 C 
BRANCH  21  22
ATOM     22  NE  ARG A   2      29.099  31.354  32.315  0.00  0.00    -0.265 N 
ATOM     23  CZ  ARG A   2      29.723  31.206  33.493  0.00  0.00    +0.342 C 
ATOM     24  NH2 ARG A   2      29.481  30.184  34.278  0.00  0.00    -0.292 N 
ATOM     25 HH21 ARG A   2      29.980  30.096  35.186  0.00  0.00    +0.255 HD
ATOM     26 HH22 ARG A   2      28.790  29.461  33.993  0.00  0.00    +0.255 HD
ATOM     27  NH1 ARG A   2      30.591  32.111  33.904  0.00  0.00    -0.292 N 
ATOM     28 HH11 ARG A   2      31.073  31.992  34.818  0.00  0.00    +0.255 HD
ATOM     29 HH12 ARG A   2      30.794  32.943  33.314  0.00  0.00    +0.255 HD
ATOM     30  HE  ARG A   2      29.334  32.193  31.747  0.00  0.00    +0.259 HD
ENDBRANCH  21  22
ENDBRANCH  20  21
ENDBRANCH  19  20
ENDBRANCH  16  19
ENDBRANCH   2  16
TORSDOF 13
REMARK  Name = ../refined-set-2016/4el0/4el0_pocket.pdb
REMARK  270 active torsions:
REMARK  status: ('A' for Active; 'I' for Inactive)
REMARK    1  A    between atoms: _1  and  _3
REMARK    2  A    between atoms: _3  and  _4
REMARK    3  A    between atoms: _3  and  _6
REMARK    4  A    between atoms: _6  and  _7
REMARK    5  A    between atoms: _12  and  _13
REMARK    6  A    between atoms: _15  and  _17
REMARK    7  A    between atoms: _17  and  _18
REMARK    8  A    between atoms: _17  and  _20
REMARK    9  A    between atoms: _20  and  _21
REMARK   10  A    between atoms: _21  and  _22
REMARK   11  A    between atoms: _25  and  _27
REMARK   12  A    between atoms: _27  and  _28
REMARK   13  A    between atoms: _27  and  _30
REMARK   14  A    between atoms: _30  and  _31
REMARK   15  A    between atoms: _36  and  _38
REMARK   16  A    between atoms: _38  and  _39
REMARK   17  A    between atoms: _41  and  _43
REMARK   18  A    between atoms: _43  and  _44
REMARK   19  A    between atoms: _46  and  _48
REMARK   20  A    between atoms: _48  and  _49
REMARK   21  A    between atoms: _48  and  _51
REMARK   22  A    between atoms: _51  and  _52
REMARK   23  A    between atoms: _55  and  _57
REMARK   24  A    between atoms: _57  and  _58
REMARK   25  A    between atoms: _60  and  _62
REMARK   26  A    between atoms: _62  and  _63
REMARK   27  A    between atoms: _62  and  _65
REMARK   28  A    between atoms: _66  and  _67
REMARK   29  A    between atoms: _67  and  _68
REMARK   30  A    between atoms: _77  and  _79
REMARK   31  A    between atoms: _79  and  _80
REMARK   32  A    between atoms: _79  and  _82
REMARK   33  A    between atoms: _82  and  _83
REMARK   34  A    between atoms: _86  and  _88
REMARK   35  A    between atoms: _88  and  _89
REMARK   36  A    between atoms: _92  and  _94
REMARK   37  A    between atoms: _94  and  _95
REMARK   38  A    between atoms: _94  and  _97
REMARK   39  A    between atoms: _97  and  _98
REMARK   40  A    between atoms: _104  and  _106
REMARK   41  A    between atoms: _106  and  _107
REMARK   42  A    between atoms: _106  and  _109
REMARK   43  A    between atoms: _109  and  _110
REMARK   44  A    between atoms: _115  and  _117
REMARK   45  A    between atoms: _117  and  _118
REMARK   46  A    between atoms: _117  and  _120
REMARK   47  A    between atoms: _120  and  _121
REMARK   48  A    between atoms: _124  and  _126
REMARK   49  A    between atoms: _126  and  _127
REMARK   50  A    between atoms: _126  and  _129
REMARK   51  A    between atoms: _129  and  _130
REMARK   52  A    between atoms: _135  and  _137
REMARK   53  A    between atoms: _137  and  _138
REMARK   54  A    between atoms: _137  and  _140
REMARK   55  A    between atoms: _140  and  _141
REMARK   56  A    between atoms: _147  and  _149
REMARK   57  A    between atoms: _149  and  _150
REMARK   58  A    between atoms: _149  and  _152
REMARK   59  A    between atoms: _152  and  _153
REMARK   60  A    between atoms: _159  and  _161
REMARK   61  A    between atoms: _161  and  _162
REMARK   62  A    between atoms: _161  and  _164
REMARK   63  A    between atoms: _164  and  _165
REMARK   64  A    between atoms: _165  and  _166
REMARK   65  A    between atoms: _169  and  _171
REMARK   66  A    between atoms: _171  and  _172
REMARK   67  A    between atoms: _171  and  _174
REMARK   68  A    between atoms: _174  and  _175
REMARK   69  A    between atoms: _175  and  _176
REMARK   70  A    between atoms: _176  and  _177
REMARK   71  A    between atoms: _186  and  _188
REMARK   72  A    between atoms: _188  and  _189
REMARK   73  A    between atoms: _188  and  _191
REMARK   74  A    between atoms: _191  and  _192
REMARK   75  A    between atoms: _192  and  _193
REMARK   76  A    between atoms: _196  and  _198
REMARK   77  A    between atoms: _198  and  _199
REMARK   78  A    between atoms: _198  and  _201
REMARK   79  A    between atoms: _201  and  _202
REMARK   80  A    between atoms: _207  and  _209
REMARK   81  A    between atoms: _209  and  _210
REMARK   82  A    between atoms: _209  and  _212
REMARK   83  A    between atoms: _212  and  _213
REMARK   84  A    between atoms: _216  and  _218
REMARK   85  A    between atoms: _218  and  _219
REMARK   86  A    between atoms: _218  and  _221
REMARK   87  A    between atoms: _221  and  _222
REMARK   88  A    between atoms: _225  and  _227
REMARK   89  A    between atoms: _227  and  _228
REMARK   90  A    between atoms: _227  and  _230
REMARK   91  A    between atoms: _230  and  _231
REMARK   92  A    between atoms: _236  and  _238
REMARK   93  A    between atoms: _238  and  _239
REMARK   94  A    between atoms: _238  and  _241
REMARK   95  A    between atoms: _241  and  _242
REMARK   96  A    between atoms: _247  and  _248
REMARK   97  A    between atoms: _250  and  _252
REMARK   98  A    between atoms: _252  and  _253
REMARK   99  A    between atoms: _252  and  _255
REMARK  100  A    between atoms: _255  and  _256
REMARK  101  A    between atoms: _259  and  _261
REMARK  102  A    between atoms: _261  and  _262
REMARK  103  A    between atoms: _261  and  _264
REMARK  104  A    between atoms: _264  and  _265
REMARK  105  A    between atoms: _270  and  _272
REMARK  106  A    between atoms: _272  and  _273
REMARK  107  A    between atoms: _272  and  _275
REMARK  108  A    between atoms: _275  and  _276
REMARK  109  A    between atoms: _281  and  _283
REMARK  110  A    between atoms: _283  and  _284
REMARK  111  A    between atoms: _283  and  _286
REMARK  112  A    between atoms: _286  and  _287
REMARK  113  A    between atoms: _290  and  _292
REMARK  114  A    between atoms: _292  and  _293
REMARK  115  A    between atoms: _292  and  _295
REMARK  116  A    between atoms: _298  and  _300
REMARK  117  A    between atoms: _300  and  _301
REMARK  118  A    between atoms: _300  and  _303
REMARK  119  A    between atoms: _303  and  _304
REMARK  120  A    between atoms: _307  and  _309
REMARK  121  A    between atoms: _309  and  _310
REMARK  122  A    between atoms: _309  and  _312
REMARK  123  A    between atoms: _312  and  _313
REMARK  124  A    between atoms: _313  and  _314
REMARK  125  A    between atoms: _317  and  _319
REMARK  126  A    between atoms: _319  and  _320
REMARK  127  A    between atoms: _323  and  _325
REMARK  128  A    between atoms: _325  and  _326
REMARK  129  A    between atoms: _325  and  _328
REMARK  130  A    between atoms: _328  and  _329
REMARK  131  A    between atoms: _332  and  _334
REMARK  132  A    between atoms: _334  and  _335
REMARK  133  A    between atoms: _334  and  _337
REMARK  134  A    between atoms: _337  and  _338
REMARK  135  A    between atoms: _338  and  _339
REMARK  136  A    between atoms: _342  and  _344
REMARK  137  A    between atoms: _344  and  _345
REMARK  138  A    between atoms: _344  and  _347
REMARK  139  A    between atoms: _347  and  _348
REMARK  140  A    between atoms: _348  and  _349
REMARK  141  A    between atoms: _349  and  _350
REMARK  142  A    between atoms: _359  and  _361
REMARK  143  A    between atoms: _361  and  _362
REMARK  144  A    between atoms: _361  and  _364
REMARK  145  A    between atoms: _364  and  _365
REMARK  146  A    between atoms: _375  and  _377
REMARK  147  A    between atoms: _377  and  _378
REMARK  148  A    between atoms: _377  and  _380
REMARK  149  A    between atoms: _380  and  _381
REMARK  150  A    between atoms: _381  and  _382
REMARK  151  A    between atoms: _384  and  _386
REMARK  152  A    between atoms: _386  and  _387
REMARK  153  A    between atoms: _390  and  _392
REMARK  154  A    between atoms: _392  and  _393
REMARK  155  A    between atoms: _392  and  _395
REMARK  156  A    between atoms: _395  and  _396
REMARK  157  A    between atoms: _401  and  _403
REMARK  158  A    between atoms: _403  and  _404
REMARK  159  A    between atoms: _406  and  _408
REMARK  160  A    between atoms: _408  and  _409
REMARK  161  A    between atoms: _408  and  _411
REMARK  162  A    between atoms: _414  and  _416
REMARK  163  A    between atoms: _416  and  _417
REMARK  164  A    between atoms: _420  and  _422
REMARK  165  A    between atoms: _422  and  _423
REMARK  166  A    between atoms: _422  and  _425
REMARK  167  A    between atoms: _425  and  _426
REMARK  168  A    between atoms: _431  and  _433
REMARK  169  A    between atoms: _433  and  _434
REMARK  170  A    between atoms: _433  and  _436
REMARK  171  A    between atoms: _436  and  _437
REMARK  172  A    between atoms: _437  and  _438
REMARK  173  A    between atoms: _438  and  _439
REMARK  174  A    between atoms: _439  and  _440
REMARK  175  A    between atoms: _444  and  _446
REMARK  176  A    between atoms: _446  and  _447
REMARK  177  A    between atoms: _446  and  _449
REMARK  178  A    between atoms: _449  and  _450
REMARK  179  A    between atoms: _453  and  _455
REMARK  180  A    between atoms: _455  and  _456
REMARK  181  A    between atoms: _455  and  _458
REMARK  182  A    between atoms: _458  and  _459
REMARK  183  A    between atoms: _464  and  _466
REMARK  184  A    between atoms: _466  and  _467
REMARK  185  A    between atoms: _469  and  _471
REMARK  186  A    between atoms: _471  and  _472
REMARK  187  A    between atoms: _471  and  _474
REMARK  188  A    between atoms: _474  and  _475
REMARK  189  A    between atoms: _475  and  _476
REMARK  190  A    between atoms: _476  and  _477
REMARK  191  A    between atoms: _477  and  _478
REMARK  192  A    between atoms: _482  and  _484
REMARK  193  A    between atoms: _484  and  _485
REMARK  194  A    between atoms: _484  and  _487
REMARK  195  A    between atoms: _487  and  _488
REMARK  196  A    between atoms: _488  and  _489
REMARK  197  A    between atoms: _489  and  _490
REMARK  198  A    between atoms: _499  and  _501
REMARK  199  A    between atoms: _501  and  _502
REMARK  200  A    between atoms: _501  and  _504
REMARK  201  A    between atoms: _504  and  _505
REMARK  202  A    between atoms: _510  and  _511
REMARK  203  A    between atoms: _513  and  _515
REMARK  204  A    between atoms: _515  and  _516
REMARK  205  A    between atoms: _515  and  _518
REMARK  206  A    between atoms: _518  and  _519
REMARK  207  A    between atoms: _519  and  _520
REMARK  208  A    between atoms: _520  and  _521
REMARK  209  A    between atoms: _521  and  _522
REMARK  210  A    between atoms: _526  and  _528
REMARK  211  A    between atoms: _528  and  _529
REMARK  212  A    between atoms: _528  and  _531
REMARK  213  A    between atoms: _531  and  _532
REMARK  214  A    between atoms: _534  and  _536
REMARK  215  A    between atoms: _536  and  _537
REMARK  216  A    between atoms: _536  and  _539
REMARK  217  A    between atoms: _539  and  _540
REMARK  218  A    between atoms: _543  and  _545
REMARK  219  A    between atoms: _545  and  _546
REMARK  220  A    between atoms: _545  and  _548
REMARK  221  A    between atoms: _548  and  _549
REMARK  222  A    between atoms: _549  and  _550
REMARK  223  A    between atoms: _553  and  _555
REMARK  224  A    between atoms: _555  and  _556
REMARK  225  A    between atoms: _559  and  _561
REMARK  226  A    between atoms: _561  and  _562
REMARK  227  A    between atoms: _561  and  _564
REMARK  228  A    between atoms: _564  and  _565
REMARK  229  A    between atoms: _567  and  _569
REMARK  230  A    between atoms: _569  and  _570
REMARK  231  A    between atoms: _572  and  _574
REMARK  232  A    between atoms: _574  and  _575
REMARK  233  A    between atoms: _574  and  _577
REMARK  234  A    between atoms: _577  and  _578
REMARK  235  A    between atoms: _581  and  _583
REMARK  236  A    between atoms: _583  and  _584
REMARK  237  A    between atoms: _586  and  _588
REMARK  238  A    between atoms: _588  and  _589
REMARK  239  A    between atoms: _588  and  _591
REMARK  240  A    between atoms: _591  and  _592
REMARK  241  A    between atoms: _597  and  _599
REMARK  242  A    between atoms: _599  and  _600
REMARK  243  A    between atoms: _599  and  _602
REMARK  244  A    between atoms: _602  and  _603
REMARK  245  A    between atoms: _603  and  _604
REMARK  246  A    between atoms: _611  and  _612
REMARK  247  A    between atoms: _612  and  _628
REMARK  248  A    between atoms: _613  and  _615
REMARK  249  A    between atoms: _615  and  _616
REMARK  250  A    between atoms: _616  and  _617
REMARK  251  A    between atoms: _621  and  _623
REMARK  252  A    between atoms: _623  and  _624
REMARK  253  A    between atoms: _623  and  _631
REMARK  254  A    between atoms: _624  and  _625
REMARK  255  A    between atoms: _625  and  _626
REMARK  256  A    between atoms: _626  and  _627
REMARK  257  A    between atoms: _627  and  _628
REMARK  258  A    between atoms: _633  and  _635
REMARK  259  A    between atoms: _635  and  _636
REMARK  260  A    between atoms: _635  and  _638
REMARK  261  A    between atoms: _638  and  _639
REMARK  262  A    between atoms: _642  and  _644
REMARK  263  A    between atoms: _644  and  _645
REMARK  264  A    between atoms: _647  and  _649
REMARK  265  A    between atoms: _649  and  _650
REMARK  266  A    between atoms: _653  and  _655
REMARK  267  A    between atoms: _655  and  _656
REMARK  268  A    between atoms: _655  and  _658
REMARK  269  A    between atoms: _658  and  _659
REMARK  270  A    between atoms: _664  and  _665
REMARK                            x       y       z     vdW  Elec       q    Type
REMARK                         _______ _______ _______ _____ _____    ______ ____
ROOT
ATOM      1  C   TYR A   1      33.426  32.068  20.626  0.00  0.00    +0.239 C 
ATOM      2  N   LYS A   2      32.408  32.196  21.454  0.00  0.00    -0.298 N 
ATOM      3  H   LYS A   2      32.541  32.694  22.357  0.00  0.00    +0.150 HD
ATOM      4  O   TYR A   1      33.308  31.558  19.540  0.00  0.00    -0.274 OA
ENDROOT
BRANCH   1   5
ATOM      5  CA  TYR A   1      34.790  32.622  21.049  0.00  0.00    +0.149 C 
BRANCH   5   6
ATOM      6  N   TYR A   1      34.661  33.703  22.000  0.00  0.00    -0.238 NA
ATOM      7  H   TYR A   1      34.998  33.584  22.977  0.00  0.00    +0.142 HD
ENDBRANCH   5   6
BRANCH   5   8
ATOM      8  CB  TYR A   1      35.741  31.515  21.547  0.00  0.00    +0.053 C 
BRANCH   8   9
ATOM      9  CG  TYR A   1      35.162  30.418  22.359  0.00  0.00    -0.020 A 
ATOM     10  CD2 TYR A   1      35.332  30.376  23.746  0.00  0.00    -0.001 A 
ATOM     11  CE2 TYR A   1      34.864  29.319  24.495  0.00  0.00    +0.036 A 
ATOM     12  CZ  TYR A   1      34.218  28.276  23.878  0.00  0.00    +0.134 A 
ATOM     13  CE1 TYR A   1      34.083  28.268  22.496  0.00  0.00    +0.036 A 
ATOM     14  CD1 TYR A   1      34.565  29.336  21.750  0.00  0.00    -0.001 A 
BRANCH  12  15
ATOM     15  OH  TYR A   1      33.709  27.225  24.641  0.00  0.00    -0.506 OA
ATOM     16  HH  TYR A   1      33.278  26.563  24.044  0.00  0.00    +0.292 HD
ENDBRANCH  12  15
ENDBRANCH   8   9
ENDBRANCH   5   8
ENDBRANCH   1   5
BRANCH   2  17
ATOM     17  CA  LYS A   2      31.117  31.657  21.127  0.00  0.00    +0.137 C 
BRANCH  17  18
ATOM     18  C   LYS A   2      30.361  32.630  20.176  0.00  0.00    +0.227 C 
ATOM     19  O   LYS A   2      29.301  32.279  19.617  0.00  0.00    -0.286 OA
ENDBRANCH  17  18
BRANCH  17  20
ATOM     20  CB  LYS A   2      30.327  31.362  22.420  0.00  0.00    +0.028 C 
BRANCH  20  21
ATOM     21  CG  LYS A   2      30.786  30.110  23.182  0.00  0.00    -0.000 C 
BRANCH  21  22
ATOM     22  CD  LYS A   2      30.519  30.278  24.743  0.00  0.00    -0.024 C 
BRANCH  22  23
ATOM     23  CE  LYS A   2      30.723  28.992  25.604  0.00  0.00    -0.086 C 
BRANCH  23  24
ATOM     24  NZ  LYS A   2      30.042  27.706  24.993  0.00  0.00    +0.380 N 
ATOM     25  HZ1 LYS A   2      30.218  26.892  25.616  0.00  0.00    -0.089 HD
ATOM     26  HZ2 LYS A   2      29.018  27.864  24.909  0.00  0.00    -0.089 HD
ATOM     27  HZ3 LYS A   2      30.443  27.517  24.052  0.00  0.00    -0.089 HD
ENDBRANCH  23  24
ENDBRANCH  22  23
ENDBRANCH  21  22
ENDBRANCH  20  21
ENDBRANCH  17  20
ENDBRANCH   2  17
TORSDOF 12
REMARK  Name = ../refined-set-2016/4el0/4el0_pocket.pdb
REMARK  270 active torsions:
REMARK  status: ('A' for Active; 'I' for Inactive)
REMARK    1  A    between atoms: _1  and  _3
REMARK    2  A    between atoms: _3  and  _4
REMARK    3  A    between atoms: _3  and  _6
REMARK    4  A    between atoms: _6  and  _7
REMARK    5  A    between atoms: _12  and  _13
REMARK    6  A    between atoms: _15  and  _17
REMARK    7  A    between atoms: _17  and  _18
REMARK    8  A    between atoms: _17  and  _20
REMARK    9  A    between atoms: _20  and  _21
REMARK   10  A    between atoms: _21  and  _22
REMARK   11  A    between atoms: _25  and  _27
REMARK   12  A    between atoms: _27  and  _28
REMARK   13  A    between atoms: _27  and  _30
REMARK   14  A    between atoms: _30  and  _31
REMARK   15  A    between atoms: _36  and  _38
REMARK   16  A    between atoms: _38  and  _39
REMARK   17  A    between atoms: _41  and  _43
REMARK   18  A    between atoms: _43  and  _44
REMARK   19  A    between atoms: _46  and  _48
REMARK   20  A    between atoms: _48  and  _49
REMARK   21  A    between atoms: _48  and  _51
REMARK   22  A    between atoms: _51  and  _52
REMARK   23  A    between atoms: _55  and  _57
REMARK   24  A    between atoms: _57  and  _58
REMARK   25  A    between atoms: _60  and  _62
REMARK   26  A    between atoms: _62  and  _63
REMARK   27  A    between atoms: _62  and  _65
REMARK   28  A    between atoms: _66  and  _67
REMARK   29  A    between atoms: _67  and  _68
REMARK   30  A    between atoms: _77  and  _79
REMARK   31  A    between atoms: _79  and  _80
REMARK   32  A    between atoms: _79  and  _82
REMARK   33  A    between atoms: _82  and  _83
REMARK   34  A    between atoms: _86  and  _88
REMARK   35  A    between atoms: _88  and  _89
REMARK   36  A    between atoms: _92  and  _94
REMARK   37  A    between atoms: _94  and  _95
REMARK   38  A    between atoms: _94  and  _97
REMARK   39  A    between atoms: _97  and  _98
REMARK   40  A    between atoms: _104  and  _106
REMARK   41  A    between atoms: _106  and  _107
REMARK   42  A    between atoms: _106  and  _109
REMARK   43  A    between atoms: _109  and  _110
REMARK   44  A    between atoms: _115  and  _117
REMARK   45  A    between atoms: _117  and  _118
REMARK   46  A    between atoms: _117  and  _120
REMARK   47  A    between atoms: _120  and  _121
REMARK   48  A    between atoms: _124  and  _126
REMARK   49  A    between atoms: _126  and  _127
REMARK   50  A    between atoms: _126  and  _129
REMARK   51  A    between atoms: _129  and  _130
REMARK   52  A    between atoms: _135  and  _137
REMARK   53  A    between atoms: _137  and  _138
REMARK   54  A    between atoms: _137  and  _140
REMARK   55  A    between atoms: _140  and  _141
REMARK   56  A    between atoms: _147  and  _149
REMARK   57  A    between atoms: _149  and  _150
REMARK   58  A    between atoms: _149  and  _152
REMARK   59  A    between atoms: _152  and  _153
REMARK   60  A    between atoms: _159  and  _161
REMARK   61  A    between atoms: _161  and  _162
REMARK   62  A    between atoms: _161  and  _164
REMARK   63  A    between atoms: _164  and  _165
REMARK   64  A    between atoms: _165  and  _166
REMARK   65  A    between atoms: _169  and  _171
REMARK   66  A    between atoms: _171  and  _172
REMARK   67  A    between atoms: _171  and  _174
REMARK   68  A    between atoms: _174  and  _175
REMARK   69  A    between atoms: _175  and  _176
REMARK   70  A    between atoms: _176  and  _177
REMARK   71  A    between atoms: _186  and  _188
REMARK   72  A    between atoms: _188  and  _189
REMARK   73  A    between atoms: _188  and  _191
REMARK   74  A    between atoms: _191  and  _192
REMARK   75  A    between atoms: _192  and  _193
REMARK   76  A    between atoms: _196  and  _198
REMARK   77  A    between atoms: _198  and  _199
REMARK   78  A    between atoms: _198  and  _201
REMARK   79  A    between atoms: _201  and  _202
REMARK   80  A    between atoms: _207  and  _209
REMARK   81  A    between atoms: _209  and  _210
REMARK   82  A    between atoms: _209  and  _212
REMARK   83  A    between atoms: _212  and  _213
REMARK   84  A    between atoms: _216  and  _218
REMARK   85  A    between atoms: _218  and  _219
REMARK   86  A    between atoms: _218  and  _221
REMARK   87  A    between atoms: _221  and  _222
REMARK   88  A    between atoms: _225  and  _227
REMARK   89  A    between atoms: _227  and  _228
REMARK   90  A    between atoms: _227  and  _230
REMARK   91  A    between atoms: _230  and  _231
REMARK   92  A    between atoms: _236  and  _238
REMARK   93  A    between atoms: _238  and  _239
REMARK   94  A    between atoms: _238  and  _241
REMARK   95  A    between atoms: _241  and  _242
REMARK   96  A    between atoms: _247  and  _248
REMARK   97  A    between atoms: _250  and  _252
REMARK   98  A    between atoms: _252  and  _253
REMARK   99  A    between atoms: _252  and  _255
REMARK  100  A    between atoms: _255  and  _256
REMARK  101  A    between atoms: _259  and  _261
REMARK  102  A    between atoms: _261  and  _262
REMARK  103  A    between atoms: _261  and  _264
REMARK  104  A    between atoms: _264  and  _265
REMARK  105  A    between atoms: _270  and  _272
REMARK  106  A    between atoms: _272  and  _273
REMARK  107  A    between atoms: _272  and  _275
REMARK  108  A    between atoms: _275  and  _276
REMARK  109  A    between atoms: _281  and  _283
REMARK  110  A    between atoms: _283  and  _284
REMARK  111  A    between atoms: _283  and  _286
REMARK  112  A    between atoms: _286  and  _287
REMARK  113  A    between atoms: _290  and  _292
REMARK  114  A    between atoms: _292  and  _293
REMARK  115  A    between atoms: _292  and  _295
REMARK  116  A    between atoms: _298  and  _300
REMARK  117  A    between atoms: _300  and  _301
REMARK  118  A    between atoms: _300  and  _303
REMARK  119  A    between atoms: _303  and  _304
REMARK  120  A    between atoms: _307  and  _309
REMARK  121  A    between atoms: _309  and  _310
REMARK  122  A    between atoms: _309  and  _312
REMARK  123  A    between atoms: _312  and  _313
REMARK  124  A    between atoms: _313  and  _314
REMARK  125  A    between atoms: _317  and  _319
REMARK  126  A    between atoms: _319  and  _320
REMARK  127  A    between atoms: _323  and  _325
REMARK  128  A    between atoms: _325  and  _326
REMARK  129  A    between atoms: _325  and  _328
REMARK  130  A    between atoms: _328  and  _329
REMARK  131  A    between atoms: _332  and  _334
REMARK  132  A    between atoms: _334  and  _335
REMARK  133  A    between atoms: _334  and  _337
REMARK  134  A    between atoms: _337  and  _338
REMARK  135  A    between atoms: _338  and  _339
REMARK  136  A    between atoms: _342  and  _344
REMARK  137  A    between atoms: _344  and  _345
REMARK  138  A    between atoms: _344  and  _347
REMARK  139  A    between atoms: _347  and  _348
REMARK  140  A    between atoms: _348  and  _349
REMARK  141  A    between atoms: _349  and  _350
REMARK  142  A    between atoms: _359  and  _361
REMARK  143  A    between atoms: _361  and  _362
REMARK  144  A    between atoms: _361  and  _364
REMARK  145  A    between atoms: _364  and  _365
REMARK  146  A    between atoms: _375  and  _377
REMARK  147  A    between atoms: _377  and  _378
REMARK  148  A    between atoms: _377  and  _380
REMARK  149  A    between atoms: _380  and  _381
REMARK  150  A    between atoms: _381  and  _382
REMARK  151  A    between atoms: _384  and  _386
REMARK  152  A    between atoms: _386  and  _387
REMARK  153  A    between atoms: _390  and  _392
REMARK  154  A    between atoms: _392  and  _393
REMARK  155  A    between atoms: _392  and  _395
REMARK  156  A    between atoms: _395  and  _396
REMARK  157  A    between atoms: _401  and  _403
REMARK  158  A    between atoms: _403  and  _404
REMARK  159  A    between atoms: _406  and  _408
REMARK  160  A    between atoms: _408  and  _409
REMARK  161  A    between atoms: _408  and  _411
REMARK  162  A    between atoms: _414  and  _416
REMARK  163  A    between atoms: _416  and  _417
REMARK  164  A    between atoms: _420  and  _422
REMARK  165  A    between atoms: _422  and  _423
REMARK  166  A    between atoms: _422  and  _425
REMARK  167  A    between atoms: _425  and  _426
REMARK  168  A    between atoms: _431  and  _433
REMARK  169  A    between atoms: _433  and  _434
REMARK  170  A    between atoms: _433  and  _436
REMARK  171  A    between atoms: _436  and  _437
REMARK  172  A    between atoms: _437  and  _438
REMARK  173  A    between atoms: _438  and  _439
REMARK  174  A    between atoms: _439  and  _440
REMARK  175  A    between atoms: _444  and  _446
REMARK  176  A    between atoms: _446  and  _447
REMARK  177  A    between atoms: _446  and  _449
REMARK  178  A    between atoms: _449  and  _450
REMARK  179  A    between atoms: _453  and  _455
REMARK  180  A    between atoms: _455  and  _456
REMARK  181  A    between atoms: _455  and  _458
REMARK  182  A    between atoms: _458  and  _459
REMARK  183  A    between atoms: _464  and  _466
REMARK  184  A    between atoms: _466  and  _467
REMARK  185  A    between atoms: _469  and  _471
REMARK  186  A    between atoms: _471  and  _472
REMARK  187  A    between atoms: _471  and  _474
REMARK  188  A    between atoms: _474  and  _475
REMARK  189  A    between atoms: _475  and  _476
REMARK  190  A    between atoms: _476  and  _477
REMARK  191  A    between atoms: _477  and  _478
REMARK  192  A    between atoms: _482  and  _484
REMARK  193  A    between atoms: _484  and  _485
REMARK  194  A    between atoms: _484  and  _487
REMARK  195  A    between atoms: _487  and  _488
REMARK  196  A    between atoms: _488  and  _489
REMARK  197  A    between atoms: _489  and  _490
REMARK  198  A    between atoms: _499  and  _501
REMARK  199  A    between atoms: _501  and  _502
REMARK  200  A    between atoms: _501  and  _504
REMARK  201  A    between atoms: _504  and  _505
REMARK  202  A    between atoms: _510  and  _511
REMARK  203  A    between atoms: _513  and  _515
REMARK  204  A    between atoms: _515  and  _516
REMARK  205  A    between atoms: _515  and  _518
REMARK  206  A    between atoms: _518  and  _519
REMARK  207  A    between atoms: _519  and  _520
REMARK  208  A    between atoms: _520  and  _521
REMARK  209  A    between atoms: _521  and  _522
REMARK  210  A    between atoms: _526  and  _528
REMARK  211  A    between atoms: _528  and  _529
REMARK  212  A    between atoms: _528  and  _531
REMARK  213  A    between atoms: _531  and  _532
REMARK  214  A    between atoms: _534  and  _536
REMARK  215  A    between atoms: _536  and  _537
REMARK  216  A    between atoms: _536  and  _539
REMARK  217  A    between atoms: _539  and  _540
REMARK  218  A    between atoms: _543  and  _545
REMARK  219  A    between atoms: _545  and  _546
REMARK  220  A    between atoms: _545  and  _548
REMARK  221  A    between atoms: _548  and  _549
REMARK  222  A    between atoms: _549  and  _550
REMARK  223  A    between atoms: _553  and  _555
REMARK  224  A    between atoms: _555  and  _556
REMARK  225  A    between atoms: _559  and  _561
REMARK  226  A    between atoms: _561  and  _562
REMARK  227  A    between atoms: _561  and  _564
REMARK  228  A    between atoms: _564  and  _565
REMARK  229  A    between atoms: _567  and  _569
REMARK  230  A    between atoms: _569  and  _570
REMARK  231  A    between atoms: _572  and  _574
REMARK  232  A    between atoms: _574  and  _575
REMARK  233  A    between atoms: _574  and  _577
REMARK  234  A    between atoms: _577  and  _578
REMARK  235  A    between atoms: _581  and  _583
REMARK  236  A    between atoms: _583  and  _584
REMARK  237  A    between atoms: _586  and  _588
REMARK  238  A    between atoms: _588  and  _589
REMARK  239  A    between atoms: _588  and  _591
REMARK  240  A    between atoms: _591  and  _592
REMARK  241  A    between atoms: _597  and  _599
REMARK  242  A    between atoms: _599  and  _600
REMARK  243  A    between atoms: _599  and  _602
REMARK  244  A    between atoms: _602  and  _603
REMARK  245  A    between atoms: _603  and  _604
REMARK  246  A    between atoms: _611  and  _612
REMARK  247  A    between atoms: _612  and  _628
REMARK  248  A    between atoms: _613  and  _615
REMARK  249  A    between atoms: _615  and  _616
REMARK  250  A    between atoms: _616  and  _617
REMARK  251  A    between atoms: _621  and  _623
REMARK  252  A    between atoms: _623  and  _624
REMARK  253  A    between atoms: _623  and  _631
REMARK  254  A    between atoms: _624  and  _625
REMARK  255  A    between atoms: _625  and  _626
REMARK  256  A    between atoms: _626  and  _627
REMARK  257  A    between atoms: _627  and  _628
REMARK  258  A    between atoms: _633  and  _635
REMARK  259  A    between atoms: _635  and  _636
REMARK  260  A    between atoms: _635  and  _638
REMARK  261  A    between atoms: _638  and  _639
REMARK  262  A    between atoms: _642  and  _644
REMARK  263  A    between atoms: _644  and  _645
REMARK  264  A    between atoms: _647  and  _649
REMARK  265  A    between atoms: _649  and  _650
REMARK  266  A    between atoms: _653  and  _655
REMARK  267  A    between atoms: _655  and  _656
REMARK  268  A    between atoms: _655  and  _658
REMARK  269  A    between atoms: _658  and  _659
REMARK  270  A    between atoms: _664  and  _665
REMARK                            x       y       z     vdW  Elec       q    Type
REMARK                         _______ _______ _______ _____ _____    ______ ____
ROOT
ATOM      1  CA  SER A   1      31.820  29.523  17.424  0.00  0.00    +0.163 C 
ENDROOT
BRANCH   1   2
ATOM      2  N   SER A   1      30.449  29.291  16.993  0.00  0.00    -0.237 NA
ATOM      3  H   SER A   1      29.951  28.450  17.349  0.00  0.00    +0.142 HD
ENDBRANCH   1   2
BRANCH   1   4
ATOM      4  C   SER A   1      32.802  29.505  16.222  0.00  0.00    +0.227 C 
ATOM      5  O   SER A   1      32.617  28.794  15.250  0.00  0.00    -0.287 OA
ENDBRANCH   1   4
BRANCH   1   6
ATOM      6  CB  SER A   1      32.165  28.407  18.376  0.00  0.00    +0.162 C 
BRANCH   6   7
ATOM      7  OG  SER A   1      31.856  27.161  17.728  0.00  0.00    -0.380 OA
ATOM      8  H   SER A   1      30.892  27.136  17.506  0.00  0.00    +0.211 HD
ENDBRANCH   6   7
ENDBRANCH   1   6
TORSDOF 4
REMARK  Name = ../refined-set-2016/4el0/4el0_pocket.pdb
REMARK  270 active torsions:
REMARK  status: ('A' for Active; 'I' for Inactive)
REMARK    1  A    between atoms: _1  and  _3
REMARK    2  A    between atoms: _3  and  _4
REMARK    3  A    between atoms: _3  and  _6
REMARK    4  A    between atoms: _6  and  _7
REMARK    5  A    between atoms: _12  and  _13
REMARK    6  A    between atoms: _15  and  _17
REMARK    7  A    between atoms: _17  and  _18
REMARK    8  A    between atoms: _17  and  _20
REMARK    9  A    between atoms: _20  and  _21
REMARK   10  A    between atoms: _21  and  _22
REMARK   11  A    between atoms: _25  and  _27
REMARK   12  A    between atoms: _27  and  _28
REMARK   13  A    between atoms: _27  and  _30
REMARK   14  A    between atoms: _30  and  _31
REMARK   15  A    between atoms: _36  and  _38
REMARK   16  A    between atoms: _38  and  _39
REMARK   17  A    between atoms: _41  and  _43
REMARK   18  A    between atoms: _43  and  _44
REMARK   19  A    between atoms: _46  and  _48
REMARK   20  A    between atoms: _48  and  _49
REMARK   21  A    between atoms: _48  and  _51
REMARK   22  A    between atoms: _51  and  _52
REMARK   23  A    between atoms: _55  and  _57
REMARK   24  A    between atoms: _57  and  _58
REMARK   25  A    between atoms: _60  and  _62
REMARK   26  A    between atoms: _62  and  _63
REMARK   27  A    between atoms: _62  and  _65
REMARK   28  A    between atoms: _66  and  _67
REMARK   29  A    between atoms: _67  and  _68
REMARK   30  A    between atoms: _77  and  _79
REMARK   31  A    between atoms: _79  and  _80
REMARK   32  A    between atoms: _79  and  _82
REMARK   33  A    between atoms: _82  and  _83
REMARK   34  A    between atoms: _86  and  _88
REMARK   35  A    between atoms: _88  and  _89
REMARK   36  A    between atoms: _92  and  _94
REMARK   37  A    between atoms: _94  and  _95
REMARK   38  A    between atoms: _94  and  _97
REMARK   39  A    between atoms: _97  and  _98
REMARK   40  A    between atoms: _104  and  _106
REMARK   41  A    between atoms: _106  and  _107
REMARK   42  A    between atoms: _106  and  _109
REMARK   43  A    between atoms: _109  and  _110
REMARK   44  A    between atoms: _115  and  _117
REMARK   45  A    between atoms: _117  and  _118
REMARK   46  A    between atoms: _117  and  _120
REMARK   47  A    between atoms: _120  and  _121
REMARK   48  A    between atoms: _124  and  _126
REMARK   49  A    between atoms: _126  and  _127
REMARK   50  A    between atoms: _126  and  _129
REMARK   51  A    between atoms: _129  and  _130
REMARK   52  A    between atoms: _135  and  _137
REMARK   53  A    between atoms: _137  and  _138
REMARK   54  A    between atoms: _137  and  _140
REMARK   55  A    between atoms: _140  and  _141
REMARK   56  A    between atoms: _147  and  _149
REMARK   57  A    between atoms: _149  and  _150
REMARK   58  A    between atoms: _149  and  _152
REMARK   59  A    between atoms: _152  and  _153
REMARK   60  A    between atoms: _159  and  _161
REMARK   61  A    between atoms: _161  and  _162
REMARK   62  A    between atoms: _161  and  _164
REMARK   63  A    between atoms: _164  and  _165
REMARK   64  A    between atoms: _165  and  _166
REMARK   65  A    between atoms: _169  and  _171
REMARK   66  A    between atoms: _171  and  _172
REMARK   67  A    between atoms: _171  and  _174
REMARK   68  A    between atoms: _174  and  _175
REMARK   69  A    between atoms: _175  and  _176
REMARK   70  A    between atoms: _176  and  _177
REMARK   71  A    between atoms: _186  and  _188
REMARK   72  A    between atoms: _188  and  _189
REMARK   73  A    between atoms: _188  and  _191
REMARK   74  A    between atoms: _191  and  _192
REMARK   75  A    between atoms: _192  and  _193
REMARK   76  A    between atoms: _196  and  _198
REMARK   77  A    between atoms: _198  and  _199
REMARK   78  A    between atoms: _198  and  _201
REMARK   79  A    between atoms: _201  and  _202
REMARK   80  A    between atoms: _207  and  _209
REMARK   81  A    between atoms: _209  and  _210
REMARK   82  A    between atoms: _209  and  _212
REMARK   83  A    between atoms: _212  and  _213
REMARK   84  A    between atoms: _216  and  _218
REMARK   85  A    between atoms: _218  and  _219
REMARK   86  A    between atoms: _218  and  _221
REMARK   87  A    between atoms: _221  and  _222
REMARK   88  A    between atoms: _225  and  _227
REMARK   89  A    between atoms: _227  and  _228
REMARK   90  A    between atoms: _227  and  _230
REMARK   91  A    between atoms: _230  and  _231
REMARK   92  A    between atoms: _236  and  _238
REMARK   93  A    between atoms: _238  and  _239
REMARK   94  A    between atoms: _238  and  _241
REMARK   95  A    between atoms: _241  and  _242
REMARK   96  A    between atoms: _247  and  _248
REMARK   97  A    between atoms: _250  and  _252
REMARK   98  A    between atoms: _252  and  _253
REMARK   99  A    between atoms: _252  and  _255
REMARK  100  A    between atoms: _255  and  _256
REMARK  101  A    between atoms: _259  and  _261
REMARK  102  A    between atoms: _261  and  _262
REMARK  103  A    between atoms: _261  and  _264
REMARK  104  A    between atoms: _264  and  _265
REMARK  105  A    between atoms: _270  and  _272
REMARK  106  A    between atoms: _272  and  _273
REMARK  107  A    between atoms: _272  and  _275
REMARK  108  A    between atoms: _275  and  _276
REMARK  109  A    between atoms: _281  and  _283
REMARK  110  A    between atoms: _283  and  _284
REMARK  111  A    between atoms: _283  and  _286
REMARK  112  A    between atoms: _286  and  _287
REMARK  113  A    between atoms: _290  and  _292
REMARK  114  A    between atoms: _292  and  _293
REMARK  115  A    between atoms: _292  and  _295
REMARK  116  A    between atoms: _298  and  _300
REMARK  117  A    between atoms: _300  and  _301
REMARK  118  A    between atoms: _300  and  _303
REMARK  119  A    between atoms: _303  and  _304
REMARK  120  A    between atoms: _307  and  _309
REMARK  121  A    between atoms: _309  and  _310
REMARK  122  A    between atoms: _309  and  _312
REMARK  123  A    between atoms: _312  and  _313
REMARK  124  A    between atoms: _313  and  _314
REMARK  125  A    between atoms: _317  and  _319
REMARK  126  A    between atoms: _319  and  _320
REMARK  127  A    between atoms: _323  and  _325
REMARK  128  A    between atoms: _325  and  _326
REMARK  129  A    between atoms: _325  and  _328
REMARK  130  A    between atoms: _328  and  _329
REMARK  131  A    between atoms: _332  and  _334
REMARK  132  A    between atoms: _334  and  _335
REMARK  133  A    between atoms: _334  and  _337
REMARK  134  A    between atoms: _337  and  _338
REMARK  135  A    between atoms: _338  and  _339
REMARK  136  A    between atoms: _342  and  _344
REMARK  137  A    between atoms: _344  and  _345
REMARK  138  A    between atoms: _344  and  _347
REMARK  139  A    between atoms: _347  and  _348
REMARK  140  A    between atoms: _348  and  _349
REMARK  141  A    between atoms: _349  and  _350
REMARK  142  A    between atoms: _359  and  _361
REMARK  143  A    between atoms: _361  and  _362
REMARK  144  A    between atoms: _361  and  _364
REMARK  145  A    between atoms: _364  and  _365
REMARK  146  A    between atoms: _375  and  _377
REMARK  147  A    between atoms: _377  and  _378
REMARK  148  A    between atoms: _377  and  _380
REMARK  149  A    between atoms: _380  and  _381
REMARK  150  A    between atoms: _381  and  _382
REMARK  151  A    between atoms: _384  and  _386
REMARK  152  A    between atoms: _386  and  _387
REMARK  153  A    between atoms: _390  and  _392
REMARK  154  A    between atoms: _392  and  _393
REMARK  155  A    between atoms: _392  and  _395
REMARK  156  A    between atoms: _395  and  _396
REMARK  157  A    between atoms: _401  and  _403
REMARK  158  A    between atoms: _403  and  _404
REMARK  159  A    between atoms: _406  and  _408
REMARK  160  A    between atoms: _408  and  _409
REMARK  161  A    between atoms: _408  and  _411
REMARK  162  A    between atoms: _414  and  _416
REMARK  163  A    between atoms: _416  and  _417
REMARK  164  A    between atoms: _420  and  _422
REMARK  165  A    between atoms: _422  and  _423
REMARK  166  A    between atoms: _422  and  _425
REMARK  167  A    between atoms: _425  and  _426
REMARK  168  A    between atoms: _431  and  _433
REMARK  169  A    between atoms: _433  and  _434
REMARK  170  A    between atoms: _433  and  _436
REMARK  171  A    between atoms: _436  and  _437
REMARK  172  A    between atoms: _437  and  _438
REMARK  173  A    between atoms: _438  and  _439
REMARK  174  A    between atoms: _439  and  _440
REMARK  175  A    between atoms: _444  and  _446
REMARK  176  A    between atoms: _446  and  _447
REMARK  177  A    between atoms: _446  and  _449
REMARK  178  A    between atoms: _449  and  _450
REMARK  179  A    between atoms: _453  and  _455
REMARK  180  A    between atoms: _455  and  _456
REMARK  181  A    between atoms: _455  and  _458
REMARK  182  A    between atoms: _458  and  _459
REMARK  183  A    between atoms: _464  and  _466
REMARK  184  A    between atoms: _466  and  _467
REMARK  185  A    between atoms: _469  and  _471
REMARK  186  A    between atoms: _471  and  _472
REMARK  187  A    between atoms: _471  and  _474
REMARK  188  A    between atoms: _474  and  _475
REMARK  189  A    between atoms: _475  and  _476
REMARK  190  A    between atoms: _476  and  _477
REMARK  191  A    between atoms: _477  and  _478
REMARK  192  A    between atoms: _482  and  _484
REMARK  193  A    between atoms: _484  and  _485
REMARK  194  A    between atoms: _484  and  _487
REMARK  195  A    between atoms: _487  and  _488
REMARK  196  A    between atoms: _488  and  _489
REMARK  197  A    between atoms: _489  and  _490
REMARK  198  A    between atoms: _499  and  _501
REMARK  199  A    between atoms: _501  and  _502
REMARK  200  A    between atoms: _501  and  _504
REMARK  201  A    between atoms: _504  and  _505
REMARK  202  A    between atoms: _510  and  _511
REMARK  203  A    between atoms: _513  and  _515
REMARK  204  A    between atoms: _515  and  _516
REMARK  205  A    between atoms: _515  and  _518
REMARK  206  A    between atoms: _518  and  _519
REMARK  207  A    between atoms: _519  and  _520
REMARK  208  A    between atoms: _520  and  _521
REMARK  209  A    between atoms: _521  and  _522
REMARK  210  A    between atoms: _526  and  _528
REMARK  211  A    between atoms: _528  and  _529
REMARK  212  A    between atoms: _528  and  _531
REMARK  213  A    between atoms: _531  and  _532
REMARK  214  A    between atoms: _534  and  _536
REMARK  215  A    between atoms: _536  and  _537
REMARK  216  A    between atoms: _536  and  _539
REMARK  217  A    between atoms: _539  and  _540
REMARK  218  A    between atoms: _543  and  _545
REMARK  219  A    between atoms: _545  and  _546
REMARK  220  A    between atoms: _545  and  _548
REMARK  221  A    between atoms: _548  and  _549
REMARK  222  A    between atoms: _549  and  _550
REMARK  223  A    between atoms: _553  and  _555
REMARK  224  A    between atoms: _555  and  _556
REMARK  225  A    between atoms: _559  and  _561
REMARK  226  A    between atoms: _561  and  _562
REMARK  227  A    between atoms: _561  and  _564
REMARK  228  A    between atoms: _564  and  _565
REMARK  229  A    between atoms: _567  and  _569
REMARK  230  A    between atoms: _569  and  _570
REMARK  231  A    between atoms: _572  and  _574
REMARK  232  A    between atoms: _574  and  _575
REMARK  233  A    between atoms: _574  and  _577
REMARK  234  A    between atoms: _577  and  _578
REMARK  235  A    between atoms: _581  and  _583
REMARK  236  A    between atoms: _583  and  _584
REMARK  237  A    between atoms: _586  and  _588
REMARK  238  A    between atoms: _588  and  _589
REMARK  239  A    between atoms: _588  and  _591
REMARK  240  A    between atoms: _591  and  _592
REMARK  241  A    between atoms: _597  and  _599
REMARK  242  A    between atoms: _599  and  _600
REMARK  243  A    between atoms: _599  and  _602
REMARK  244  A    between atoms: _602  and  _603
REMARK  245  A    between atoms: _603  and  _604
REMARK  246  A    between atoms: _611  and  _612
REMARK  247  A    between atoms: _612  and  _628
REMARK  248  A    between atoms: _613  and  _615
REMARK  249  A    between atoms: _615  and  _616
REMARK  250  A    between atoms: _616  and  _617
REMARK  251  A    between atoms: _621  and  _623
REMARK  252  A    between atoms: _623  and  _624
REMARK  253  A    between atoms: _623  and  _631
REMARK  254  A    between atoms: _624  and  _625
REMARK  255  A    between atoms: _625  and  _626
REMARK  256  A    between atoms: _626  and  _627
REMARK  257  A    between atoms: _627  and  _628
REMARK  258  A    between atoms: _633  and  _635
REMARK  259  A    between atoms: _635  and  _636
REMARK  260  A    between atoms: _635  and  _638
REMARK  261  A    between atoms: _638  and  _639
REMARK  262  A    between atoms: _642  and  _644
REMARK  263  A    between atoms: _644  and  _645
REMARK  264  A    between atoms: _647  and  _649
REMARK  265  A    between atoms: _649  and  _650
REMARK  266  A    between atoms: _653  and  _655
REMARK  267  A    between atoms: _655  and  _656
REMARK  268  A    between atoms: _655  and  _658
REMARK  269  A    between atoms: _658  and  _659
REMARK  270  A    between atoms: _664  and  _665
REMARK                            x       y       z     vdW  Elec       q    Type
REMARK                         _______ _______ _______ _____ _____    ______ ____
ROOT
ATOM      1  CA  GLY A   7      23.772  22.334  23.927  0.00  0.00    +0.176 C 
ENDROOT
BRANCH   1   2
ATOM      2  C   GLY A   7      23.340  21.958  22.501  0.00  0.00    +0.243 C 
ATOM      3  O   GLY A   7      22.138  21.693  22.228  0.00  0.00    -0.273 OA
ATOM      4  N   ASN A   8      24.298  21.948  21.569  0.00  0.00    -0.297 N 
ATOM      5  H   ASN A   8      25.281  22.149  21.843  0.00  0.00    +0.150 HD
BRANCH   4   6
ATOM      6  CA  ASN A   8      23.985  21.658  20.163  0.00  0.00    +0.158 C 
BRANCH   6   7
ATOM      7  C   ASN A   8      23.143  20.342  20.053  0.00  0.00    +0.241 C 
ATOM      8  N   MET A   9      23.581  19.349  20.837  0.00  0.00    -0.297 N 
ATOM      9  H   MET A   9      24.437  19.513  21.405  0.00  0.00    +0.150 HD
ATOM     10  O   ASN A   8      22.118  20.267  19.313  0.00  0.00    -0.273 OA
BRANCH   8  11
ATOM     11  CA  MET A   9      22.935  18.067  20.939  0.00  0.00    +0.149 C 
BRANCH  11  12
ATOM     12  C   MET A   9      21.531  18.163  21.600  0.00  0.00    +0.241 C 
ATOM     13  N   UNK A  10      21.386  18.979  22.632  0.00  0.00    -0.298 N 
ATOM     14  H   UNK A  10      22.198  19.495  23.027  0.00  0.00    +0.150 HD
ATOM     15  O   MET A   9      20.596  17.487  21.181  0.00  0.00    -0.273 OA
BRANCH  13  16
ATOM     16  C   UNK A  10      20.058  19.129  23.193  0.00  0.00    +0.137 C 
BRANCH  16  17
ATOM     17  C   UNK A  10      18.989  19.560  22.160  0.00  0.00    +0.227 C 
ATOM     18  O   UNK A  10      17.879  18.999  22.087  0.00  0.00    -0.286 OA
ENDBRANCH  16  17
BRANCH  16  19
ATOM     19  C   UNK A  10      20.115  20.037  24.435  0.00  0.00    +0.028 C 
BRANCH  19  20
ATOM     20  C   UNK A  10      21.112  19.507  25.553  0.00  0.00    -0.000 C 
BRANCH  20  21
ATOM     21  C   UNK A  10      21.374  20.610  26.534  0.00  0.00    -0.023 C 
BRANCH  21  22
ATOM     22  C   UNK A  10      22.725  20.470  27.172  0.00  0.00    -0.081 C 
BRANCH  22  23
ATOM     23  N   UNK A  10      22.927  21.437  28.274  0.00  0.00    +0.387 N 
ATOM     24  H   UNK A  10      22.125  22.098  28.316  0.00  0.00    -0.084 HD
ATOM     25  H   UNK A  10      23.005  20.931  29.179  0.00  0.00    -0.084 HD
BRANCH  23  26
ATOM     26  C   UNK A  10      24.048  22.103  28.032  0.00  0.00    -0.051 C 
BRANCH  26  27
ATOM     27  C   UNK A  10      24.222  23.343  28.891  0.00  0.00    -0.004 A 
ATOM     28  C   UNK A  10      25.393  24.104  28.717  0.00  0.00    +0.024 A 
ATOM     29  C   UNK A  10      25.610  25.222  29.479  0.00  0.00    +0.096 A 
ATOM     30  N   UNK A  10      24.646  25.540  30.400  0.00  0.00    -0.245 NA
ATOM     31  C   UNK A  10      23.534  24.844  30.613  0.00  0.00    +0.098 A 
ATOM     32  C   UNK A  10      22.613  25.412  31.651  0.00  0.00    +0.056 C 
ATOM     33  C   UNK A  10      23.271  23.709  29.868  0.00  0.00    +0.203 A 
ATOM     34  O   UNK A  10      22.196  23.034  30.068  0.00  0.00    -0.286 OA
BRANCH  28  35
ATOM     35  C   UNK A  10      26.452  23.804  27.683  0.00  0.00    +0.181 C 
BRANCH  35  36
ATOM     36  O   UNK A  10      26.092  24.414  26.443  0.00  0.00    -0.265 OA
BRANCH  36  37
ATOM     37  P   UNK A  10      27.077  24.656  25.204  0.00  0.00    +0.533 P 
ATOM     38  O   UNK A  10      27.739  23.386  24.779  0.00  0.00    -0.115 OA
ATOM     39  O   UNK A  10      27.970  25.659  25.805  0.00  0.00    -0.115 OA
ATOM     40  O   UNK A  10      26.152  25.269  24.221  0.00  0.00    -0.222 OA
ENDBRANCH  36  37
ENDBRANCH  35  36
ENDBRANCH  28  35
ENDBRANCH  26  27
ENDBRANCH  23  26
ENDBRANCH  22  23
ENDBRANCH  21  22
ENDBRANCH  20  21
ENDBRANCH  19  20
ENDBRANCH  16  19
ENDBRANCH  13  16
ENDBRANCH  11  12
BRANCH  11  41
ATOM     41  CB  MET A   9      23.848  17.036  21.653  0.00  0.00    +0.041 C 
BRANCH  41  42
ATOM     42  CG  MET A   9      25.198  16.911  21.031  0.00  0.00    +0.060 C 
BRANCH  42  43
ATOM     43  SD  MET A   9      26.374  16.024  22.086  0.00  0.00    -0.139 S 
ATOM     44  CE  MET A   9      27.927  16.284  21.232  0.00  0.00    +0.069 C 
ENDBRANCH  42  43
ENDBRANCH  41  42
ENDBRANCH  11  41
ENDBRANCH   8  11
ENDBRANCH   6   7
BRANCH   6  45
ATOM     45  CB  ASN A   8      25.246  21.624  19.301  0.00  0.00    +0.114 C 
BRANCH  45  46
ATOM     46  CG  ASN A   8      26.398  20.767  19.916  0.00  0.00    +0.222 C 
ATOM     47  ND2 ASN A   8      26.145  20.060  21.043  0.00  0.00    -0.329 N 
ATOM     48 HD21 ASN A   8      25.205  20.107  21.486  0.00  0.00    +0.145 HD
ATOM     49 HD22 ASN A   8      26.890  19.470  21.465  0.00  0.00    +0.145 HD
ATOM     50  OD1 ASN A   8      27.509  20.738  19.355  0.00  0.00    -0.275 OA
ENDBRANCH  45  46
ENDBRANCH   6  45
ENDBRANCH   4   6
ENDBRANCH   1   2
BRANCH   1  52
ATOM     51  C   THR A   6      25.170  20.330  24.104  0.00  0.00    +0.243 C 
ATOM     52  N   GLY A   7      25.026  21.652  24.271  0.00  0.00    -0.295 N 
ATOM     53  H   GLY A   7      25.819  22.206  24.652  0.00  0.00    +0.150 HD
ATOM     54  O   THR A   6      24.228  19.566  23.864  0.00  0.00    -0.273 OA
BRANCH  51  55
ATOM     55  CA  THR A   6      26.564  19.787  24.192  0.00  0.00    +0.176 C 
BRANCH  55  57
ATOM     56  C   GLY A   5      28.595  20.508  23.105  0.00  0.00    +0.243 C 
ATOM     57  N   THR A   6      27.559  20.808  23.877  0.00  0.00    -0.295 N 
ATOM     58  H   THR A   6      27.455  21.770  24.258  0.00  0.00    +0.150 HD
ATOM     59  O   GLY A   5      28.793  19.358  22.711  0.00  0.00    -0.273 OA
BRANCH  56  60
ATOM     60  CA  GLY A   5      29.530  21.655  22.726  0.00  0.00    +0.176 C 
BRANCH  60  62
ATOM     61  C   SER A   4      31.301  20.594  21.418  0.00  0.00    +0.243 C 
ATOM     62  N   GLY A   5      30.878  21.166  22.549  0.00  0.00    -0.295 N 
ATOM     63  H   GLY A   5      31.549  21.264  23.337  0.00  0.00    +0.150 HD
ATOM     64  O   SER A   4      30.685  20.620  20.317  0.00  0.00    -0.273 OA
BRANCH  61  65
ATOM     65  CA  SER A   4      32.600  19.845  21.520  0.00  0.00    +0.178 C 
BRANCH  65  67
ATOM     66  C   ALA A   3      34.878  20.549  21.367  0.00  0.00    +0.241 C 
ATOM     67  N   SER A   4      33.664  20.664  21.931  0.00  0.00    -0.295 N 
ATOM     68  H   SER A   4      33.510  21.368  22.681  0.00  0.00    +0.150 HD
ATOM     69  O   ALA A   3      35.187  19.671  20.505  0.00  0.00    -0.273 OA
BRANCH  66  70
ATOM     70  CA  ALA A   3      35.937  21.567  21.868  0.00  0.00    +0.149 C 
ATOM     71  CB  ALA A   3      36.539  21.112  23.258  0.00  0.00    +0.031 C 
BRANCH  70  73
ATOM     72  C   GLU A   2      34.839  23.482  20.809  0.00  0.00    +0.241 C 
ATOM     73  N   ALA A   3      35.380  22.924  21.913  0.00  0.00    -0.297 N 
ATOM     74  H   ALA A   3      35.402  23.461  22.803  0.00  0.00    +0.150 HD
ATOM     75  O   GLU A   2      34.733  22.887  19.757  0.00  0.00    -0.273 OA
BRANCH  72  76
ATOM     76  CA  GLU A   2      34.428  24.960  20.841  0.00  0.00    +0.149 C 
BRANCH  76  79
ATOM     77  C   THR A   1      36.585  26.133  20.442  0.00  0.00    +0.241 C 
ATOM     78  O   THR A   1      36.955  25.966  21.581  0.00  0.00    -0.274 OA
ATOM     79  N   GLU A   2      35.394  25.713  19.996  0.00  0.00    -0.297 N 
ATOM     80  H   GLU A   2      35.132  25.923  19.012  0.00  0.00    +0.150 HD
BRANCH  77  81
ATOM     81  CA  THR A   1      37.523  26.834  19.505  0.00  0.00    +0.172 C 
BRANCH  81  82
ATOM     82  N   THR A   1      37.557  26.336  18.130  0.00  0.00    -0.236 NA
ATOM     83  H   THR A   1      36.771  26.545  17.481  0.00  0.00    +0.142 HD
ENDBRANCH  81  82
BRANCH  81  84
ATOM     84  CB  THR A   1      37.267  28.338  19.501  0.00  0.00    +0.135 C 
ATOM     85  CG2 THR A   1      38.308  29.021  18.549  0.00  0.00    +0.034 C 
BRANCH  84  86
ATOM     86  OG1 THR A   1      35.921  28.589  19.058  0.00  0.00    -0.383 OA
ATOM     87  HG1 THR A   1      35.803  28.229  18.143  0.00  0.00    +0.210 HD
ENDBRANCH  84  86
ENDBRANCH  81  84
ENDBRANCH  77  81
ENDBRANCH  76  79
BRANCH  76  88
ATOM     88  CB  GLU A   2      32.995  25.096  20.282  0.00  0.00    +0.041 C 
BRANCH  88  89
ATOM     89  CG  GLU A   2      31.839  24.725  21.250  0.00  0.00    +0.116 C 
BRANCH  89  90
ATOM     90  CD  GLU A   2      31.785  25.589  22.527  0.00  0.00    +0.365 C 
ATOM     91  OE2 GLU A   2      32.515  25.237  23.472  0.00  0.00    -0.246 OA
ATOM     92  OE1 GLU A   2      31.020  26.608  22.618  0.00  0.00    -0.246 OA
ENDBRANCH  89  90
ENDBRANCH  88  89
ENDBRANCH  76  88
ENDBRANCH  72  76
ENDBRANCH  70  73
ENDBRANCH  66  70
ENDBRANCH  65  67
BRANCH  65  93
ATOM     93  CB  SER A   4      32.382  18.671  22.456  0.00  0.00    +0.166 C 
BRANCH  93  94
ATOM     94  OG  SER A   4      31.162  18.046  22.057  0.00  0.00    -0.380 OA
ATOM     95  H   SER A   4      30.420  18.697  22.130  0.00  0.00    +0.211 HD
ENDBRANCH  93  94
ENDBRANCH  65  93
ENDBRANCH  61  65
ENDBRANCH  60  62
ENDBRANCH  56  60
ENDBRANCH  55  57
BRANCH  55  96
ATOM     96  CB  THR A   6      26.774  19.169  25.521  0.00  0.00    +0.137 C 
ATOM     97  CG2 THR A   6      27.987  18.363  25.512  0.00  0.00    +0.034 C 
BRANCH  96  98
ATOM     98  OG1 THR A   6      26.886  20.197  26.469  0.00  0.00    -0.382 OA
ATOM     99  HG1 THR A   6      27.027  19.803  27.366  0.00  0.00    +0.210 HD
ENDBRANCH  96  98
ENDBRANCH  55  96
ENDBRANCH  51  55
ENDBRANCH   1  52
TORSDOF 44
REMARK  Name = ../refined-set-2016/4el0/4el0_pocket.pdb
REMARK  270 active torsions:
REMARK  status: ('A' for Active; 'I' for Inactive)
REMARK    1  A    between atoms: _1  and  _3
REMARK    2  A    between atoms: _3  and  _4
REMARK    3  A    between atoms: _3  and  _6
REMARK    4  A    between atoms: _6  and  _7
REMARK    5  A    between atoms: _12  and  _13
REMARK    6  A    between atoms: _15  and  _17
REMARK    7  A    between atoms: _17  and  _18
REMARK    8  A    between atoms: _17  and  _20
REMARK    9  A    between atoms: _20  and  _21
REMARK   10  A    between atoms: _21  and  _22
REMARK   11  A    between atoms: _25  and  _27
REMARK   12  A    between atoms: _27  and  _28
REMARK   13  A    between atoms: _27  and  _30
REMARK   14  A    between atoms: _30  and  _31
REMARK   15  A    between atoms: _36  and  _38
REMARK   16  A    between atoms: _38  and  _39
REMARK   17  A    between atoms: _41  and  _43
REMARK   18  A    between atoms: _43  and  _44
REMARK   19  A    between atoms: _46  and  _48
REMARK   20  A    between atoms: _48  and  _49
REMARK   21  A    between atoms: _48  and  _51
REMARK   22  A    between atoms: _51  and  _52
REMARK   23  A    between atoms: _55  and  _57
REMARK   24  A    between atoms: _57  and  _58
REMARK   25  A    between atoms: _60  and  _62
REMARK   26  A    between atoms: _62  and  _63
REMARK   27  A    between atoms: _62  and  _65
REMARK   28  A    between atoms: _66  and  _67
REMARK   29  A    between atoms: _67  and  _68
REMARK   30  A    between atoms: _77  and  _79
REMARK   31  A    between atoms: _79  and  _80
REMARK   32  A    between atoms: _79  and  _82
REMARK   33  A    between atoms: _82  and  _83
REMARK   34  A    between atoms: _86  and  _88
REMARK   35  A    between atoms: _88  and  _89
REMARK   36  A    between atoms: _92  and  _94
REMARK   37  A    between atoms: _94  and  _95
REMARK   38  A    between atoms: _94  and  _97
REMARK   39  A    between atoms: _97  and  _98
REMARK   40  A    between atoms: _104  and  _106
REMARK   41  A    between atoms: _106  and  _107
REMARK   42  A    between atoms: _106  and  _109
REMARK   43  A    between atoms: _109  and  _110
REMARK   44  A    between atoms: _115  and  _117
REMARK   45  A    between atoms: _117  and  _118
REMARK   46  A    between atoms: _117  and  _120
REMARK   47  A    between atoms: _120  and  _121
REMARK   48  A    between atoms: _124  and  _126
REMARK   49  A    between atoms: _126  and  _127
REMARK   50  A    between atoms: _126  and  _129
REMARK   51  A    between atoms: _129  and  _130
REMARK   52  A    between atoms: _135  and  _137
REMARK   53  A    between atoms: _137  and  _138
REMARK   54  A    between atoms: _137  and  _140
REMARK   55  A    between atoms: _140  and  _141
REMARK   56  A    between atoms: _147  and  _149
REMARK   57  A    between atoms: _149  and  _150
REMARK   58  A    between atoms: _149  and  _152
REMARK   59  A    between atoms: _152  and  _153
REMARK   60  A    between atoms: _159  and  _161
REMARK   61  A    between atoms: _161  and  _162
REMARK   62  A    between atoms: _161  and  _164
REMARK   63  A    between atoms: _164  and  _165
REMARK   64  A    between atoms: _165  and  _166
REMARK   65  A    between atoms: _169  and  _171
REMARK   66  A    between atoms: _171  and  _172
REMARK   67  A    between atoms: _171  and  _174
REMARK   68  A    between atoms: _174  and  _175
REMARK   69  A    between atoms: _175  and  _176
REMARK   70  A    between atoms: _176  and  _177
REMARK   71  A    between atoms: _186  and  _188
REMARK   72  A    between atoms: _188  and  _189
REMARK   73  A    between atoms: _188  and  _191
REMARK   74  A    between atoms: _191  and  _192
REMARK   75  A    between atoms: _192  and  _193
REMARK   76  A    between atoms: _196  and  _198
REMARK   77  A    between atoms: _198  and  _199
REMARK   78  A    between atoms: _198  and  _201
REMARK   79  A    between atoms: _201  and  _202
REMARK   80  A    between atoms: _207  and  _209
REMARK   81  A    between atoms: _209  and  _210
REMARK   82  A    between atoms: _209  and  _212
REMARK   83  A    between atoms: _212  and  _213
REMARK   84  A    between atoms: _216  and  _218
REMARK   85  A    between atoms: _218  and  _219
REMARK   86  A    between atoms: _218  and  _221
REMARK   87  A    between atoms: _221  and  _222
REMARK   88  A    between atoms: _225  and  _227
REMARK   89  A    between atoms: _227  and  _228
REMARK   90  A    between atoms: _227  and  _230
REMARK   91  A    between atoms: _230  and  _231
REMARK   92  A    between atoms: _236  and  _238
REMARK   93  A    between atoms: _238  and  _239
REMARK   94  A    between atoms: _238  and  _241
REMARK   95  A    between atoms: _241  and  _242
REMARK   96  A    between atoms: _247  and  _248
REMARK   97  A    between atoms: _250  and  _252
REMARK   98  A    between atoms: _252  and  _253
REMARK   99  A    between atoms: _252  and  _255
REMARK  100  A    between atoms: _255  and  _256
REMARK  101  A    between atoms: _259  and  _261
REMARK  102  A    between atoms: _261  and  _262
REMARK  103  A    between atoms: _261  and  _264
REMARK  104  A    between atoms: _264  and  _265
REMARK  105  A    between atoms: _270  and  _272
REMARK  106  A    between atoms: _272  and  _273
REMARK  107  A    between atoms: _272  and  _275
REMARK  108  A    between atoms: _275  and  _276
REMARK  109  A    between atoms: _281  and  _283
REMARK  110  A    between atoms: _283  and  _284
REMARK  111  A    between atoms: _283  and  _286
REMARK  112  A    between atoms: _286  and  _287
REMARK  113  A    between atoms: _290  and  _292
REMARK  114  A    between atoms: _292  and  _293
REMARK  115  A    between atoms: _292  and  _295
REMARK  116  A    between atoms: _298  and  _300
REMARK  117  A    between atoms: _300  and  _301
REMARK  118  A    between atoms: _300  and  _303
REMARK  119  A    between atoms: _303  and  _304
REMARK  120  A    between atoms: _307  and  _309
REMARK  121  A    between atoms: _309  and  _310
REMARK  122  A    between atoms: _309  and  _312
REMARK  123  A    between atoms: _312  and  _313
REMARK  124  A    between atoms: _313  and  _314
REMARK  125  A    between atoms: _317  and  _319
REMARK  126  A    between atoms: _319  and  _320
REMARK  127  A    between atoms: _323  and  _325
REMARK  128  A    between atoms: _325  and  _326
REMARK  129  A    between atoms: _325  and  _328
REMARK  130  A    between atoms: _328  and  _329
REMARK  131  A    between atoms: _332  and  _334
REMARK  132  A    between atoms: _334  and  _335
REMARK  133  A    between atoms: _334  and  _337
REMARK  134  A    between atoms: _337  and  _338
REMARK  135  A    between atoms: _338  and  _339
REMARK  136  A    between atoms: _342  and  _344
REMARK  137  A    between atoms: _344  and  _345
REMARK  138  A    between atoms: _344  and  _347
REMARK  139  A    between atoms: _347  and  _348
REMARK  140  A    between atoms: _348  and  _349
REMARK  141  A    between atoms: _349  and  _350
REMARK  142  A    between atoms: _359  and  _361
REMARK  143  A    between atoms: _361  and  _362
REMARK  144  A    between atoms: _361  and  _364
REMARK  145  A    between atoms: _364  and  _365
REMARK  146  A    between atoms: _375  and  _377
REMARK  147  A    between atoms: _377  and  _378
REMARK  148  A    between atoms: _377  and  _380
REMARK  149  A    between atoms: _380  and  _381
REMARK  150  A    between atoms: _381  and  _382
REMARK  151  A    between atoms: _384  and  _386
REMARK  152  A    between atoms: _386  and  _387
REMARK  153  A    between atoms: _390  and  _392
REMARK  154  A    between atoms: _392  and  _393
REMARK  155  A    between atoms: _392  and  _395
REMARK  156  A    between atoms: _395  and  _396
REMARK  157  A    between atoms: _401  and  _403
REMARK  158  A    between atoms: _403  and  _404
REMARK  159  A    between atoms: _406  and  _408
REMARK  160  A    between atoms: _408  and  _409
REMARK  161  A    between atoms: _408  and  _411
REMARK  162  A    between atoms: _414  and  _416
REMARK  163  A    between atoms: _416  and  _417
REMARK  164  A    between atoms: _420  and  _422
REMARK  165  A    between atoms: _422  and  _423
REMARK  166  A    between atoms: _422  and  _425
REMARK  167  A    between atoms: _425  and  _426
REMARK  168  A    between atoms: _431  and  _433
REMARK  169  A    between atoms: _433  and  _434
REMARK  170  A    between atoms: _433  and  _436
REMARK  171  A    between atoms: _436  and  _437
REMARK  172  A    between atoms: _437  and  _438
REMARK  173  A    between atoms: _438  and  _439
REMARK  174  A    between atoms: _439  and  _440
REMARK  175  A    between atoms: _444  and  _446
REMARK  176  A    between atoms: _446  and  _447
REMARK  177  A    between atoms: _446  and  _449
REMARK  178  A    between atoms: _449  and  _450
REMARK  179  A    between atoms: _453  and  _455
REMARK  180  A    between atoms: _455  and  _456
REMARK  181  A    between atoms: _455  and  _458
REMARK  182  A    between atoms: _458  and  _459
REMARK  183  A    between atoms: _464  and  _466
REMARK  184  A    between atoms: _466  and  _467
REMARK  185  A    between atoms: _469  and  _471
REMARK  186  A    between atoms: _471  and  _472
REMARK  187  A    between atoms: _471  and  _474
REMARK  188  A    between atoms: _474  and  _475
REMARK  189  A    between atoms: _475  and  _476
REMARK  190  A    between atoms: _476  and  _477
REMARK  191  A    between atoms: _477  and  _478
REMARK  192  A    between atoms: _482  and  _484
REMARK  193  A    between atoms: _484  and  _485
REMARK  194  A    between atoms: _484  and  _487
REMARK  195  A    between atoms: _487  and  _488
REMARK  196  A    between atoms: _488  and  _489
REMARK  197  A    between atoms: _489  and  _490
REMARK  198  A    between atoms: _499  and  _501
REMARK  199  A    between atoms: _501  and  _502
REMARK  200  A    between atoms: _501  and  _504
REMARK  201  A    between atoms: _504  and  _505
REMARK  202  A    between atoms: _510  and  _511
REMARK  203  A    between atoms: _513  and  _515
REMARK  204  A    between atoms: _515  and  _516
REMARK  205  A    between atoms: _515  and  _518
REMARK  206  A    between atoms: _518  and  _519
REMARK  207  A    between atoms: _519  and  _520
REMARK  208  A    between atoms: _520  and  _521
REMARK  209  A    between atoms: _521  and  _522
REMARK  210  A    between atoms: _526  and  _528
REMARK  211  A    between atoms: _528  and  _529
REMARK  212  A    between atoms: _528  and  _531
REMARK  213  A    between atoms: _531  and  _532
REMARK  214  A    between atoms: _534  and  _536
REMARK  215  A    between atoms: _536  and  _537
REMARK  216  A    between atoms: _536  and  _539
REMARK  217  A    between atoms: _539  and  _540
REMARK  218  A    between atoms: _543  and  _545
REMARK  219  A    between atoms: _545  and  _546
REMARK  220  A    between atoms: _545  and  _548
REMARK  221  A    between atoms: _548  and  _549
REMARK  222  A    between atoms: _549  and  _550
REMARK  223  A    between atoms: _553  and  _555
REMARK  224  A    between atoms: _555  and  _556
REMARK  225  A    between atoms: _559  and  _561
REMARK  226  A    between atoms: _561  and  _562
REMARK  227  A    between atoms: _561  and  _564
REMARK  228  A    between atoms: _564  and  _565
REMARK  229  A    between atoms: _567  and  _569
REMARK  230  A    between atoms: _569  and  _570
REMARK  231  A    between atoms: _572  and  _574
REMARK  232  A    between atoms: _574  and  _575
REMARK  233  A    between atoms: _574  and  _577
REMARK  234  A    between atoms: _577  and  _578
REMARK  235  A    between atoms: _581  and  _583
REMARK  236  A    between atoms: _583  and  _584
REMARK  237  A    between atoms: _586  and  _588
REMARK  238  A    between atoms: _588  and  _589
REMARK  239  A    between atoms: _588  and  _591
REMARK  240  A    between atoms: _591  and  _592
REMARK  241  A    between atoms: _597  and  _599
REMARK  242  A    between atoms: _599  and  _600
REMARK  243  A    between atoms: _599  and  _602
REMARK  244  A    between atoms: _602  and  _603
REMARK  245  A    between atoms: _603  and  _604
REMARK  246  A    between atoms: _611  and  _612
REMARK  247  A    between atoms: _612  and  _628
REMARK  248  A    between atoms: _613  and  _615
REMARK  249  A    between atoms: _615  and  _616
REMARK  250  A    between atoms: _616  and  _617
REMARK  251  A    between atoms: _621  and  _623
REMARK  252  A    between atoms: _623  and  _624
REMARK  253  A    between atoms: _623  and  _631
REMARK  254  A    between atoms: _624  and  _625
REMARK  255  A    between atoms: _625  and  _626
REMARK  256  A    between atoms: _626  and  _627
REMARK  257  A    between atoms: _627  and  _628
REMARK  258  A    between atoms: _633  and  _635
REMARK  259  A    between atoms: _635  and  _636
REMARK  260  A    between atoms: _635  and  _638
REMARK  261  A    between atoms: _638  and  _639
REMARK  262  A    between atoms: _642  and  _644
REMARK  263  A    between atoms: _644  and  _645
REMARK  264  A    between atoms: _647  and  _649
REMARK  265  A    between atoms: _649  and  _650
REMARK  266  A    between atoms: _653  and  _655
REMARK  267  A    between atoms: _655  and  _656
REMARK  268  A    between atoms: _655  and  _658
REMARK  269  A    between atoms: _658  and  _659
REMARK  270  A    between atoms: _664  and  _665
REMARK                            x       y       z     vdW  Elec       q    Type
REMARK                         _______ _______ _______ _____ _____    ______ ____
ROOT
ATOM      1  C   ASP A   1      32.845  22.143  15.862  0.00  0.00    +0.239 C 
ATOM      2  N   GLY A   2      33.780  21.599  16.642  0.00  0.00    -0.296 N 
ATOM      3  H   GLY A   2      34.787  21.818  16.501  0.00  0.00    +0.150 HD
ATOM      4  O   ASP A   1      31.658  21.765  15.882  0.00  0.00    -0.274 OA
ENDROOT
BRANCH   1   5
ATOM      5  CA  ASP A   1      33.299  23.235  14.929  0.00  0.00    +0.156 C 
BRANCH   5   6
ATOM      6  N   ASP A   1      32.562  23.197  13.721  0.00  0.00    -0.238 NA
ATOM      7  H   ASP A   1      31.524  23.244  13.769  0.00  0.00    +0.142 HD
ENDBRANCH   5   6
BRANCH   5   8
ATOM      8  CB  ASP A   1      33.149  24.582  15.608  0.00  0.00    +0.140 C 
BRANCH   8   9
ATOM      9  CG  ASP A   1      34.290  24.848  16.567  0.00  0.00    +0.367 C 
ATOM     10  OD2 ASP A   1      34.138  25.776  17.388  0.00  0.00    -0.246 OA
ATOM     11  OD1 ASP A   1      35.312  24.080  16.510  0.00  0.00    -0.246 OA
ENDBRANCH   8   9
ENDBRANCH   5   8
ENDBRANCH   1   5
BRANCH   2  12
ATOM     12  CA  GLY A   2      33.344  20.673  17.717  0.00  0.00    +0.176 C 
BRANCH  12  13
ATOM     13  C   GLY A   2      32.473  19.545  17.200  0.00  0.00    +0.243 C 
ATOM     14  N   ALA A   3      31.361  19.277  17.877  0.00  0.00    -0.298 N 
ATOM     15  H   ALA A   3      31.026  19.917  18.625  0.00  0.00    +0.150 HD
ATOM     16  O   GLY A   2      32.815  18.894  16.206  0.00  0.00    -0.273 OA
BRANCH  14  17
ATOM     17  CA  ALA A   3      30.631  18.079  17.549  0.00  0.00    +0.137 C 
ATOM     18  CB  ALA A   3      29.940  17.488  18.759  0.00  0.00    +0.030 C 
BRANCH  17  19
ATOM     19  C   ALA A   3      29.629  18.405  16.427  0.00  0.00    +0.227 C 
ATOM     20  O   ALA A   3      29.024  17.446  15.843  0.00  0.00    -0.286 OA
ENDBRANCH  17  19
ENDBRANCH  14  17
ENDBRANCH  12  13
ENDBRANCH   2  12
TORSDOF 8
REMARK  Name = ../refined-set-2016/4el0/4el0_pocket.pdb
REMARK  270 active torsions:
REMARK  status: ('A' for Active; 'I' for Inactive)
REMARK    1  A    between atoms: _1  and  _3
REMARK    2  A    between atoms: _3  and  _4
REMARK    3  A    between atoms: _3  and  _6
REMARK    4  A    between atoms: _6  and  _7
REMARK    5  A    between atoms: _12  and  _13
REMARK    6  A    between atoms: _15  and  _17
REMARK    7  A    between atoms: _17  and  _18
REMARK    8  A    between atoms: _17  and  _20
REMARK    9  A    between atoms: _20  and  _21
REMARK   10  A    between atoms: _21  and  _22
REMARK   11  A    between atoms: _25  and  _27
REMARK   12  A    between atoms: _27  and  _28
REMARK   13  A    between atoms: _27  and  _30
REMARK   14  A    between atoms: _30  and  _31
REMARK   15  A    between atoms: _36  and  _38
REMARK   16  A    between atoms: _38  and  _39
REMARK   17  A    between atoms: _41  and  _43
REMARK   18  A    between atoms: _43  and  _44
REMARK   19  A    between atoms: _46  and  _48
REMARK   20  A    between atoms: _48  and  _49
REMARK   21  A    between atoms: _48  and  _51
REMARK   22  A    between atoms: _51  and  _52
REMARK   23  A    between atoms: _55  and  _57
REMARK   24  A    between atoms: _57  and  _58
REMARK   25  A    between atoms: _60  and  _62
REMARK   26  A    between atoms: _62  and  _63
REMARK   27  A    between atoms: _62  and  _65
REMARK   28  A    between atoms: _66  and  _67
REMARK   29  A    between atoms: _67  and  _68
REMARK   30  A    between atoms: _77  and  _79
REMARK   31  A    between atoms: _79  and  _80
REMARK   32  A    between atoms: _79  and  _82
REMARK   33  A    between atoms: _82  and  _83
REMARK   34  A    between atoms: _86  and  _88
REMARK   35  A    between atoms: _88  and  _89
REMARK   36  A    between atoms: _92  and  _94
REMARK   37  A    between atoms: _94  and  _95
REMARK   38  A    between atoms: _94  and  _97
REMARK   39  A    between atoms: _97  and  _98
REMARK   40  A    between atoms: _104  and  _106
REMARK   41  A    between atoms: _106  and  _107
REMARK   42  A    between atoms: _106  and  _109
REMARK   43  A    between atoms: _109  and  _110
REMARK   44  A    between atoms: _115  and  _117
REMARK   45  A    between atoms: _117  and  _118
REMARK   46  A    between atoms: _117  and  _120
REMARK   47  A    between atoms: _120  and  _121
REMARK   48  A    between atoms: _124  and  _126
REMARK   49  A    between atoms: _126  and  _127
REMARK   50  A    between atoms: _126  and  _129
REMARK   51  A    between atoms: _129  and  _130
REMARK   52  A    between atoms: _135  and  _137
REMARK   53  A    between atoms: _137  and  _138
REMARK   54  A    between atoms: _137  and  _140
REMARK   55  A    between atoms: _140  and  _141
REMARK   56  A    between atoms: _147  and  _149
REMARK   57  A    between atoms: _149  and  _150
REMARK   58  A    between atoms: _149  and  _152
REMARK   59  A    between atoms: _152  and  _153
REMARK   60  A    between atoms: _159  and  _161
REMARK   61  A    between atoms: _161  and  _162
REMARK   62  A    between atoms: _161  and  _164
REMARK   63  A    between atoms: _164  and  _165
REMARK   64  A    between atoms: _165  and  _166
REMARK   65  A    between atoms: _169  and  _171
REMARK   66  A    between atoms: _171  and  _172
REMARK   67  A    between atoms: _171  and  _174
REMARK   68  A    between atoms: _174  and  _175
REMARK   69  A    between atoms: _175  and  _176
REMARK   70  A    between atoms: _176  and  _177
REMARK   71  A    between atoms: _186  and  _188
REMARK   72  A    between atoms: _188  and  _189
REMARK   73  A    between atoms: _188  and  _191
REMARK   74  A    between atoms: _191  and  _192
REMARK   75  A    between atoms: _192  and  _193
REMARK   76  A    between atoms: _196  and  _198
REMARK   77  A    between atoms: _198  and  _199
REMARK   78  A    between atoms: _198  and  _201
REMARK   79  A    between atoms: _201  and  _202
REMARK   80  A    between atoms: _207  and  _209
REMARK   81  A    between atoms: _209  and  _210
REMARK   82  A    between atoms: _209  and  _212
REMARK   83  A    between atoms: _212  and  _213
REMARK   84  A    between atoms: _216  and  _218
REMARK   85  A    between atoms: _218  and  _219
REMARK   86  A    between atoms: _218  and  _221
REMARK   87  A    between atoms: _221  and  _222
REMARK   88  A    between atoms: _225  and  _227
REMARK   89  A    between atoms: _227  and  _228
REMARK   90  A    between atoms: _227  and  _230
REMARK   91  A    between atoms: _230  and  _231
REMARK   92  A    between atoms: _236  and  _238
REMARK   93  A    between atoms: _238  and  _239
REMARK   94  A    between atoms: _238  and  _241
REMARK   95  A    between atoms: _241  and  _242
REMARK   96  A    between atoms: _247  and  _248
REMARK   97  A    between atoms: _250  and  _252
REMARK   98  A    between atoms: _252  and  _253
REMARK   99  A    between atoms: _252  and  _255
REMARK  100  A    between atoms: _255  and  _256
REMARK  101  A    between atoms: _259  and  _261
REMARK  102  A    between atoms: _261  and  _262
REMARK  103  A    between atoms: _261  and  _264
REMARK  104  A    between atoms: _264  and  _265
REMARK  105  A    between atoms: _270  and  _272
REMARK  106  A    between atoms: _272  and  _273
REMARK  107  A    between atoms: _272  and  _275
REMARK  108  A    between atoms: _275  and  _276
REMARK  109  A    between atoms: _281  and  _283
REMARK  110  A    between atoms: _283  and  _284
REMARK  111  A    between atoms: _283  and  _286
REMARK  112  A    between atoms: _286  and  _287
REMARK  113  A    between atoms: _290  and  _292
REMARK  114  A    between atoms: _292  and  _293
REMARK  115  A    between atoms: _292  and  _295
REMARK  116  A    between atoms: _298  and  _300
REMARK  117  A    between atoms: _300  and  _301
REMARK  118  A    between atoms: _300  and  _303
REMARK  119  A    between atoms: _303  and  _304
REMARK  120  A    between atoms: _307  and  _309
REMARK  121  A    between atoms: _309  and  _310
REMARK  122  A    between atoms: _309  and  _312
REMARK  123  A    between atoms: _312  and  _313
REMARK  124  A    between atoms: _313  and  _314
REMARK  125  A    between atoms: _317  and  _319
REMARK  126  A    between atoms: _319  and  _320
REMARK  127  A    between atoms: _323  and  _325
REMARK  128  A    between atoms: _325  and  _326
REMARK  129  A    between atoms: _325  and  _328
REMARK  130  A    between atoms: _328  and  _329
REMARK  131  A    between atoms: _332  and  _334
REMARK  132  A    between atoms: _334  and  _335
REMARK  133  A    between atoms: _334  and  _337
REMARK  134  A    between atoms: _337  and  _338
REMARK  135  A    between atoms: _338  and  _339
REMARK  136  A    between atoms: _342  and  _344
REMARK  137  A    between atoms: _344  and  _345
REMARK  138  A    between atoms: _344  and  _347
REMARK  139  A    between atoms: _347  and  _348
REMARK  140  A    between atoms: _348  and  _349
REMARK  141  A    between atoms: _349  and  _350
REMARK  142  A    between atoms: _359  and  _361
REMARK  143  A    between atoms: _361  and  _362
REMARK  144  A    between atoms: _361  and  _364
REMARK  145  A    between atoms: _364  and  _365
REMARK  146  A    between atoms: _375  and  _377
REMARK  147  A    between atoms: _377  and  _378
REMARK  148  A    between atoms: _377  and  _380
REMARK  149  A    between atoms: _380  and  _381
REMARK  150  A    between atoms: _381  and  _382
REMARK  151  A    between atoms: _384  and  _386
REMARK  152  A    between atoms: _386  and  _387
REMARK  153  A    between atoms: _390  and  _392
REMARK  154  A    between atoms: _392  and  _393
REMARK  155  A    between atoms: _392  and  _395
REMARK  156  A    between atoms: _395  and  _396
REMARK  157  A    between atoms: _401  and  _403
REMARK  158  A    between atoms: _403  and  _404
REMARK  159  A    between atoms: _406  and  _408
REMARK  160  A    between atoms: _408  and  _409
REMARK  161  A    between atoms: _408  and  _411
REMARK  162  A    between atoms: _414  and  _416
REMARK  163  A    between atoms: _416  and  _417
REMARK  164  A    between atoms: _420  and  _422
REMARK  165  A    between atoms: _422  and  _423
REMARK  166  A    between atoms: _422  and  _425
REMARK  167  A    between atoms: _425  and  _426
REMARK  168  A    between atoms: _431  and  _433
REMARK  169  A    between atoms: _433  and  _434
REMARK  170  A    between atoms: _433  and  _436
REMARK  171  A    between atoms: _436  and  _437
REMARK  172  A    between atoms: _437  and  _438
REMARK  173  A    between atoms: _438  and  _439
REMARK  174  A    between atoms: _439  and  _440
REMARK  175  A    between atoms: _444  and  _446
REMARK  176  A    between atoms: _446  and  _447
REMARK  177  A    between atoms: _446  and  _449
REMARK  178  A    between atoms: _449  and  _450
REMARK  179  A    between atoms: _453  and  _455
REMARK  180  A    between atoms: _455  and  _456
REMARK  181  A    between atoms: _455  and  _458
REMARK  182  A    between atoms: _458  and  _459
REMARK  183  A    between atoms: _464  and  _466
REMARK  184  A    between atoms: _466  and  _467
REMARK  185  A    between atoms: _469  and  _471
REMARK  186  A    between atoms: _471  and  _472
REMARK  187  A    between atoms: _471  and  _474
REMARK  188  A    between atoms: _474  and  _475
REMARK  189  A    between atoms: _475  and  _476
REMARK  190  A    between atoms: _476  and  _477
REMARK  191  A    between atoms: _477  and  _478
REMARK  192  A    between atoms: _482  and  _484
REMARK  193  A    between atoms: _484  and  _485
REMARK  194  A    between atoms: _484  and  _487
REMARK  195  A    between atoms: _487  and  _488
REMARK  196  A    between atoms: _488  and  _489
REMARK  197  A    between atoms: _489  and  _490
REMARK  198  A    between atoms: _499  and  _501
REMARK  199  A    between atoms: _501  and  _502
REMARK  200  A    between atoms: _501  and  _504
REMARK  201  A    between atoms: _504  and  _505
REMARK  202  A    between atoms: _510  and  _511
REMARK  203  A    between atoms: _513  and  _515
REMARK  204  A    between atoms: _515  and  _516
REMARK  205  A    between atoms: _515  and  _518
REMARK  206  A    between atoms: _518  and  _519
REMARK  207  A    between atoms: _519  and  _520
REMARK  208  A    between atoms: _520  and  _521
REMARK  209  A    between atoms: _521  and  _522
REMARK  210  A    between atoms: _526  and  _528
REMARK  211  A    between atoms: _528  and  _529
REMARK  212  A    between atoms: _528  and  _531
REMARK  213  A    between atoms: _531  and  _532
REMARK  214  A    between atoms: _534  and  _536
REMARK  215  A    between atoms: _536  and  _537
REMARK  216  A    between atoms: _536  and  _539
REMARK  217  A    between atoms: _539  and  _540
REMARK  218  A    between atoms: _543  and  _545
REMARK  219  A    between atoms: _545  and  _546
REMARK  220  A    between atoms: _545  and  _548
REMARK  221  A    between atoms: _548  and  _549
REMARK  222  A    between atoms: _549  and  _550
REMARK  223  A    between atoms: _553  and  _555
REMARK  224  A    between atoms: _555  and  _556
REMARK  225  A    between atoms: _559  and  _561
REMARK  226  A    between atoms: _561  and  _562
REMARK  227  A    between atoms: _561  and  _564
REMARK  228  A    between atoms: _564  and  _565
REMARK  229  A    between atoms: _567  and  _569
REMARK  230  A    between atoms: _569  and  _570
REMARK  231  A    between atoms: _572  and  _574
REMARK  232  A    between atoms: _574  and  _575
REMARK  233  A    between atoms: _574  and  _577
REMARK  234  A    between atoms: _577  and  _578
REMARK  235  A    between atoms: _581  and  _583
REMARK  236  A    between atoms: _583  and  _584
REMARK  237  A    between atoms: _586  and  _588
REMARK  238  A    between atoms: _588  and  _589
REMARK  239  A    between atoms: _588  and  _591
REMARK  240  A    between atoms: _591  and  _592
REMARK  241  A    between atoms: _597  and  _599
REMARK  242  A    between atoms: _599  and  _600
REMARK  243  A    between atoms: _599  and  _602
REMARK  244  A    between atoms: _602  and  _603
REMARK  245  A    between atoms: _603  and  _604
REMARK  246  A    between atoms: _611  and  _612
REMARK  247  A    between atoms: _612  and  _628
REMARK  248  A    between atoms: _613  and  _615
REMARK  249  A    between atoms: _615  and  _616
REMARK  250  A    between atoms: _616  and  _617
REMARK  251  A    between atoms: _621  and  _623
REMARK  252  A    between atoms: _623  and  _624
REMARK  253  A    between atoms: _623  and  _631
REMARK  254  A    between atoms: _624  and  _625
REMARK  255  A    between atoms: _625  and  _626
REMARK  256  A    between atoms: _626  and  _627
REMARK  257  A    between atoms: _627  and  _628
REMARK  258  A    between atoms: _633  and  _635
REMARK  259  A    between atoms: _635  and  _636
REMARK  260  A    between atoms: _635  and  _638
REMARK  261  A    between atoms: _638  and  _639
REMARK  262  A    between atoms: _642  and  _644
REMARK  263  A    between atoms: _644  and  _645
REMARK  264  A    between atoms: _647  and  _649
REMARK  265  A    between atoms: _649  and  _650
REMARK  266  A    between atoms: _653  and  _655
REMARK  267  A    between atoms: _655  and  _656
REMARK  268  A    between atoms: _655  and  _658
REMARK  269  A    between atoms: _658  and  _659
REMARK  270  A    between atoms: _664  and  _665
REMARK                            x       y       z     vdW  Elec       q    Type
REMARK                         _______ _______ _______ _____ _____    ______ ____
ROOT
ATOM      1  CG  TYR A   1      34.588   7.564  28.924  0.00  0.00    -0.020 A 
ATOM      2  CD2 TYR A   1      35.724   8.192  29.421  0.00  0.00    -0.001 A 
ATOM      3  CE2 TYR A   1      35.950   9.542  29.178  0.00  0.00    +0.036 A 
ATOM      4  CZ  TYR A   1      35.050  10.279  28.432  0.00  0.00    +0.134 A 
ATOM      5  CE1 TYR A   1      33.912   9.708  27.904  0.00  0.00    +0.036 A 
ATOM      6  CD1 TYR A   1      33.670   8.341  28.159  0.00  0.00    -0.001 A 
ENDROOT
BRANCH   4   7
ATOM      7  OH  TYR A   1      35.323  11.599  28.231  0.00  0.00    -0.506 OA
ATOM      8  HH  TYR A   1      35.402  11.774  27.260  0.00  0.00    +0.292 HD
ENDBRANCH   4   7
BRANCH   1   9
ATOM      9  CB  TYR A   1      34.330   6.115  29.230  0.00  0.00    +0.051 C 
BRANCH   9  10
ATOM     10  CA  TYR A   1      34.805   5.094  28.187  0.00  0.00    +0.137 C 
BRANCH  10  11
ATOM     11  N   TYR A   1      33.854   4.989  27.072  0.00  0.00    -0.239 NA
ATOM     12  H   TYR A   1      33.010   5.596  27.037  0.00  0.00    +0.142 HD
ENDBRANCH  10  11
BRANCH  10  13
ATOM     13  C   TYR A   1      34.971   3.724  28.904  0.00  0.00    +0.224 C 
ATOM     14  O   TYR A   1      36.063   3.260  29.190  0.00  0.00    -0.287 OA
ENDBRANCH  10  13
ENDBRANCH   9  10
ENDBRANCH   1   9
TORSDOF 5
REMARK  Name = ../refined-set-2016/4el0/4el0_pocket.pdb
REMARK  270 active torsions:
REMARK  status: ('A' for Active; 'I' for Inactive)
REMARK    1  A    between atoms: _1  and  _3
REMARK    2  A    between atoms: _3  and  _4
REMARK    3  A    between atoms: _3  and  _6
REMARK    4  A    between atoms: _6  and  _7
REMARK    5  A    between atoms: _12  and  _13
REMARK    6  A    between atoms: _15  and  _17
REMARK    7  A    between atoms: _17  and  _18
REMARK    8  A    between atoms: _17  and  _20
REMARK    9  A    between atoms: _20  and  _21
REMARK   10  A    between atoms: _21  and  _22
REMARK   11  A    between atoms: _25  and  _27
REMARK   12  A    between atoms: _27  and  _28
REMARK   13  A    between atoms: _27  and  _30
REMARK   14  A    between atoms: _30  and  _31
REMARK   15  A    between atoms: _36  and  _38
REMARK   16  A    between atoms: _38  and  _39
REMARK   17  A    between atoms: _41  and  _43
REMARK   18  A    between atoms: _43  and  _44
REMARK   19  A    between atoms: _46  and  _48
REMARK   20  A    between atoms: _48  and  _49
REMARK   21  A    between atoms: _48  and  _51
REMARK   22  A    between atoms: _51  and  _52
REMARK   23  A    between atoms: _55  and  _57
REMARK   24  A    between atoms: _57  and  _58
REMARK   25  A    between atoms: _60  and  _62
REMARK   26  A    between atoms: _62  and  _63
REMARK   27  A    between atoms: _62  and  _65
REMARK   28  A    between atoms: _66  and  _67
REMARK   29  A    between atoms: _67  and  _68
REMARK   30  A    between atoms: _77  and  _79
REMARK   31  A    between atoms: _79  and  _80
REMARK   32  A    between atoms: _79  and  _82
REMARK   33  A    between atoms: _82  and  _83
REMARK   34  A    between atoms: _86  and  _88
REMARK   35  A    between atoms: _88  and  _89
REMARK   36  A    between atoms: _92  and  _94
REMARK   37  A    between atoms: _94  and  _95
REMARK   38  A    between atoms: _94  and  _97
REMARK   39  A    between atoms: _97  and  _98
REMARK   40  A    between atoms: _104  and  _106
REMARK   41  A    between atoms: _106  and  _107
REMARK   42  A    between atoms: _106  and  _109
REMARK   43  A    between atoms: _109  and  _110
REMARK   44  A    between atoms: _115  and  _117
REMARK   45  A    between atoms: _117  and  _118
REMARK   46  A    between atoms: _117  and  _120
REMARK   47  A    between atoms: _120  and  _121
REMARK   48  A    between atoms: _124  and  _126
REMARK   49  A    between atoms: _126  and  _127
REMARK   50  A    between atoms: _126  and  _129
REMARK   51  A    between atoms: _129  and  _130
REMARK   52  A    between atoms: _135  and  _137
REMARK   53  A    between atoms: _137  and  _138
REMARK   54  A    between atoms: _137  and  _140
REMARK   55  A    between atoms: _140  and  _141
REMARK   56  A    between atoms: _147  and  _149
REMARK   57  A    between atoms: _149  and  _150
REMARK   58  A    between atoms: _149  and  _152
REMARK   59  A    between atoms: _152  and  _153
REMARK   60  A    between atoms: _159  and  _161
REMARK   61  A    between atoms: _161  and  _162
REMARK   62  A    between atoms: _161  and  _164
REMARK   63  A    between atoms: _164  and  _165
REMARK   64  A    between atoms: _165  and  _166
REMARK   65  A    between atoms: _169  and  _171
REMARK   66  A    between atoms: _171  and  _172
REMARK   67  A    between atoms: _171  and  _174
REMARK   68  A    between atoms: _174  and  _175
REMARK   69  A    between atoms: _175  and  _176
REMARK   70  A    between atoms: _176  and  _177
REMARK   71  A    between atoms: _186  and  _188
REMARK   72  A    between atoms: _188  and  _189
REMARK   73  A    between atoms: _188  and  _191
REMARK   74  A    between atoms: _191  and  _192
REMARK   75  A    between atoms: _192  and  _193
REMARK   76  A    between atoms: _196  and  _198
REMARK   77  A    between atoms: _198  and  _199
REMARK   78  A    between atoms: _198  and  _201
REMARK   79  A    between atoms: _201  and  _202
REMARK   80  A    between atoms: _207  and  _209
REMARK   81  A    between atoms: _209  and  _210
REMARK   82  A    between atoms: _209  and  _212
REMARK   83  A    between atoms: _212  and  _213
REMARK   84  A    between atoms: _216  and  _218
REMARK   85  A    between atoms: _218  and  _219
REMARK   86  A    between atoms: _218  and  _221
REMARK   87  A    between atoms: _221  and  _222
REMARK   88  A    between atoms: _225  and  _227
REMARK   89  A    between atoms: _227  and  _228
REMARK   90  A    between atoms: _227  and  _230
REMARK   91  A    between atoms: _230  and  _231
REMARK   92  A    between atoms: _236  and  _238
REMARK   93  A    between atoms: _238  and  _239
REMARK   94  A    between atoms: _238  and  _241
REMARK   95  A    between atoms: _241  and  _242
REMARK   96  A    between atoms: _247  and  _248
REMARK   97  A    between atoms: _250  and  _252
REMARK   98  A    between atoms: _252  and  _253
REMARK   99  A    between atoms: _252  and  _255
REMARK  100  A    between atoms: _255  and  _256
REMARK  101  A    between atoms: _259  and  _261
REMARK  102  A    between atoms: _261  and  _262
REMARK  103  A    between atoms: _261  and  _264
REMARK  104  A    between atoms: _264  and  _265
REMARK  105  A    between atoms: _270  and  _272
REMARK  106  A    between atoms: _272  and  _273
REMARK  107  A    between atoms: _272  and  _275
REMARK  108  A    between atoms: _275  and  _276
REMARK  109  A    between atoms: _281  and  _283
REMARK  110  A    between atoms: _283  and  _284
REMARK  111  A    between atoms: _283  and  _286
REMARK  112  A    between atoms: _286  and  _287
REMARK  113  A    between atoms: _290  and  _292
REMARK  114  A    between atoms: _292  and  _293
REMARK  115  A    between atoms: _292  and  _295
REMARK  116  A    between atoms: _298  and  _300
REMARK  117  A    between atoms: _300  and  _301
REMARK  118  A    between atoms: _300  and  _303
REMARK  119  A    between atoms: _303  and  _304
REMARK  120  A    between atoms: _307  and  _309
REMARK  121  A    between atoms: _309  and  _310
REMARK  122  A    between atoms: _309  and  _312
REMARK  123  A    between atoms: _312  and  _313
REMARK  124  A    between atoms: _313  and  _314
REMARK  125  A    between atoms: _317  and  _319
REMARK  126  A    between atoms: _319  and  _320
REMARK  127  A    between atoms: _323  and  _325
REMARK  128  A    between atoms: _325  and  _326
REMARK  129  A    between atoms: _325  and  _328
REMARK  130  A    between atoms: _328  and  _329
REMARK  131  A    between atoms: _332  and  _334
REMARK  132  A    between atoms: _334  and  _335
REMARK  133  A    between atoms: _334  and  _337
REMARK  134  A    between atoms: _337  and  _338
REMARK  135  A    between atoms: _338  and  _339
REMARK  136  A    between atoms: _342  and  _344
REMARK  137  A    between atoms: _344  and  _345
REMARK  138  A    between atoms: _344  and  _347
REMARK  139  A    between atoms: _347  and  _348
REMARK  140  A    between atoms: _348  and  _349
REMARK  141  A    between atoms: _349  and  _350
REMARK  142  A    between atoms: _359  and  _361
REMARK  143  A    between atoms: _361  and  _362
REMARK  144  A    between atoms: _361  and  _364
REMARK  145  A    between atoms: _364  and  _365
REMARK  146  A    between atoms: _375  and  _377
REMARK  147  A    between atoms: _377  and  _378
REMARK  148  A    between atoms: _377  and  _380
REMARK  149  A    between atoms: _380  and  _381
REMARK  150  A    between atoms: _381  and  _382
REMARK  151  A    between atoms: _384  and  _386
REMARK  152  A    between atoms: _386  and  _387
REMARK  153  A    between atoms: _390  and  _392
REMARK  154  A    between atoms: _392  and  _393
REMARK  155  A    between atoms: _392  and  _395
REMARK  156  A    between atoms: _395  and  _396
REMARK  157  A    between atoms: _401  and  _403
REMARK  158  A    between atoms: _403  and  _404
REMARK  159  A    between atoms: _406  and  _408
REMARK  160  A    between atoms: _408  and  _409
REMARK  161  A    between atoms: _408  and  _411
REMARK  162  A    between atoms: _414  and  _416
REMARK  163  A    between atoms: _416  and  _417
REMARK  164  A    between atoms: _420  and  _422
REMARK  165  A    between atoms: _422  and  _423
REMARK  166  A    between atoms: _422  and  _425
REMARK  167  A    between atoms: _425  and  _426
REMARK  168  A    between atoms: _431  and  _433
REMARK  169  A    between atoms: _433  and  _434
REMARK  170  A    between atoms: _433  and  _436
REMARK  171  A    between atoms: _436  and  _437
REMARK  172  A    between atoms: _437  and  _438
REMARK  173  A    between atoms: _438  and  _439
REMARK  174  A    between atoms: _439  and  _440
REMARK  175  A    between atoms: _444  and  _446
REMARK  176  A    between atoms: _446  and  _447
REMARK  177  A    between atoms: _446  and  _449
REMARK  178  A    between atoms: _449  and  _450
REMARK  179  A    between atoms: _453  and  _455
REMARK  180  A    between atoms: _455  and  _456
REMARK  181  A    between atoms: _455  and  _458
REMARK  182  A    between atoms: _458  and  _459
REMARK  183  A    between atoms: _464  and  _466
REMARK  184  A    between atoms: _466  and  _467
REMARK  185  A    between atoms: _469  and  _471
REMARK  186  A    between atoms: _471  and  _472
REMARK  187  A    between atoms: _471  and  _474
REMARK  188  A    between atoms: _474  and  _475
REMARK  189  A    between atoms: _475  and  _476
REMARK  190  A    between atoms: _476  and  _477
REMARK  191  A    between atoms: _477  and  _478
REMARK  192  A    between atoms: _482  and  _484
REMARK  193  A    between atoms: _484  and  _485
REMARK  194  A    between atoms: _484  and  _487
REMARK  195  A    between atoms: _487  and  _488
REMARK  196  A    between atoms: _488  and  _489
REMARK  197  A    between atoms: _489  and  _490
REMARK  198  A    between atoms: _499  and  _501
REMARK  199  A    between atoms: _501  and  _502
REMARK  200  A    between atoms: _501  and  _504
REMARK  201  A    between atoms: _504  and  _505
REMARK  202  A    between atoms: _510  and  _511
REMARK  203  A    between atoms: _513  and  _515
REMARK  204  A    between atoms: _515  and  _516
REMARK  205  A    between atoms: _515  and  _518
REMARK  206  A    between atoms: _518  and  _519
REMARK  207  A    between atoms: _519  and  _520
REMARK  208  A    between atoms: _520  and  _521
REMARK  209  A    between atoms: _521  and  _522
REMARK  210  A    between atoms: _526  and  _528
REMARK  211  A    between atoms: _528  and  _529
REMARK  212  A    between atoms: _528  and  _531
REMARK  213  A    between atoms: _531  and  _532
REMARK  214  A    between atoms: _534  and  _536
REMARK  215  A    between atoms: _536  and  _537
REMARK  216  A    between atoms: _536  and  _539
REMARK  217  A    between atoms: _539  and  _540
REMARK  218  A    between atoms: _543  and  _545
REMARK  219  A    between atoms: _545  and  _546
REMARK  220  A    between atoms: _545  and  _548
REMARK  221  A    between atoms: _548  and  _549
REMARK  222  A    between atoms: _549  and  _550
REMARK  223  A    between atoms: _553  and  _555
REMARK  224  A    between atoms: _555  and  _556
REMARK  225  A    between atoms: _559  and  _561
REMARK  226  A    between atoms: _561  and  _562
REMARK  227  A    between atoms: _561  and  _564
REMARK  228  A    between atoms: _564  and  _565
REMARK  229  A    between atoms: _567  and  _569
REMARK  230  A    between atoms: _569  and  _570
REMARK  231  A    between atoms: _572  and  _574
REMARK  232  A    between atoms: _574  and  _575
REMARK  233  A    between atoms: _574  and  _577
REMARK  234  A    between atoms: _577  and  _578
REMARK  235  A    between atoms: _581  and  _583
REMARK  236  A    between atoms: _583  and  _584
REMARK  237  A    between atoms: _586  and  _588
REMARK  238  A    between atoms: _588  and  _589
REMARK  239  A    between atoms: _588  and  _591
REMARK  240  A    between atoms: _591  and  _592
REMARK  241  A    between atoms: _597  and  _599
REMARK  242  A    between atoms: _599  and  _600
REMARK  243  A    between atoms: _599  and  _602
REMARK  244  A    between atoms: _602  and  _603
REMARK  245  A    between atoms: _603  and  _604
REMARK  246  A    between atoms: _611  and  _612
REMARK  247  A    between atoms: _612  and  _628
REMARK  248  A    between atoms: _613  and  _615
REMARK  249  A    between atoms: _615  and  _616
REMARK  250  A    between atoms: _616  and  _617
REMARK  251  A    between atoms: _621  and  _623
REMARK  252  A    between atoms: _623  and  _624
REMARK  253  A    between atoms: _623  and  _631
REMARK  254  A    between atoms: _624  and  _625
REMARK  255  A    between atoms: _625  and  _626
REMARK  256  A    between atoms: _626  and  _627
REMARK  257  A    between atoms: _627  and  _628
REMARK  258  A    between atoms: _633  and  _635
REMARK  259  A    between atoms: _635  and  _636
REMARK  260  A    between atoms: _635  and  _638
REMARK  261  A    between atoms: _638  and  _639
REMARK  262  A    between atoms: _642  and  _644
REMARK  263  A    between atoms: _644  and  _645
REMARK  264  A    between atoms: _647  and  _649
REMARK  265  A    between atoms: _649  and  _650
REMARK  266  A    between atoms: _653  and  _655
REMARK  267  A    between atoms: _655  and  _656
REMARK  268  A    between atoms: _655  and  _658
REMARK  269  A    between atoms: _658  and  _659
REMARK  270  A    between atoms: _664  and  _665
REMARK                            x       y       z     vdW  Elec       q    Type
REMARK                         _______ _______ _______ _____ _____    ______ ____
ROOT
ATOM      1  O   HOH     1      33.617  12.811  26.316  0.00  0.00    +0.000 OA
ENDROOT
TORSDOF 0
REMARK  Name = ../refined-set-2016/4el0/4el0_pocket.pdb
REMARK  270 active torsions:
REMARK  status: ('A' for Active; 'I' for Inactive)
REMARK    1  A    between atoms: _1  and  _3
REMARK    2  A    between atoms: _3  and  _4
REMARK    3  A    between atoms: _3  and  _6
REMARK    4  A    between atoms: _6  and  _7
REMARK    5  A    between atoms: _12  and  _13
REMARK    6  A    between atoms: _15  and  _17
REMARK    7  A    between atoms: _17  and  _18
REMARK    8  A    between atoms: _17  and  _20
REMARK    9  A    between atoms: _20  and  _21
REMARK   10  A    between atoms: _21  and  _22
REMARK   11  A    between atoms: _25  and  _27
REMARK   12  A    between atoms: _27  and  _28
REMARK   13  A    between atoms: _27  and  _30
REMARK   14  A    between atoms: _30  and  _31
REMARK   15  A    between atoms: _36  and  _38
REMARK   16  A    between atoms: _38  and  _39
REMARK   17  A    between atoms: _41  and  _43
REMARK   18  A    between atoms: _43  and  _44
REMARK   19  A    between atoms: _46  and  _48
REMARK   20  A    between atoms: _48  and  _49
REMARK   21  A    between atoms: _48  and  _51
REMARK   22  A    between atoms: _51  and  _52
REMARK   23  A    between atoms: _55  and  _57
REMARK   24  A    between atoms: _57  and  _58
REMARK   25  A    between atoms: _60  and  _62
REMARK   26  A    between atoms: _62  and  _63
REMARK   27  A    between atoms: _62  and  _65
REMARK   28  A    between atoms: _66  and  _67
REMARK   29  A    between atoms: _67  and  _68
REMARK   30  A    between atoms: _77  and  _79
REMARK   31  A    between atoms: _79  and  _80
REMARK   32  A    between atoms: _79  and  _82
REMARK   33  A    between atoms: _82  and  _83
REMARK   34  A    between atoms: _86  and  _88
REMARK   35  A    between atoms: _88  and  _89
REMARK   36  A    between atoms: _92  and  _94
REMARK   37  A    between atoms: _94  and  _95
REMARK   38  A    between atoms: _94  and  _97
REMARK   39  A    between atoms: _97  and  _98
REMARK   40  A    between atoms: _104  and  _106
REMARK   41  A    between atoms: _106  and  _107
REMARK   42  A    between atoms: _106  and  _109
REMARK   43  A    between atoms: _109  and  _110
REMARK   44  A    between atoms: _115  and  _117
REMARK   45  A    between atoms: _117  and  _118
REMARK   46  A    between atoms: _117  and  _120
REMARK   47  A    between atoms: _120  and  _121
REMARK   48  A    between atoms: _124  and  _126
REMARK   49  A    between atoms: _126  and  _127
REMARK   50  A    between atoms: _126  and  _129
REMARK   51  A    between atoms: _129  and  _130
REMARK   52  A    between atoms: _135  and  _137
REMARK   53  A    between atoms: _137  and  _138
REMARK   54  A    between atoms: _137  and  _140
REMARK   55  A    between atoms: _140  and  _141
REMARK   56  A    between atoms: _147  and  _149
REMARK   57  A    between atoms: _149  and  _150
REMARK   58  A    between atoms: _149  and  _152
REMARK   59  A    between atoms: _152  and  _153
REMARK   60  A    between atoms: _159  and  _161
REMARK   61  A    between atoms: _161  and  _162
REMARK   62  A    between atoms: _161  and  _164
REMARK   63  A    between atoms: _164  and  _165
REMARK   64  A    between atoms: _165  and  _166
REMARK   65  A    between atoms: _169  and  _171
REMARK   66  A    between atoms: _171  and  _172
REMARK   67  A    between atoms: _171  and  _174
REMARK   68  A    between atoms: _174  and  _175
REMARK   69  A    between atoms: _175  and  _176
REMARK   70  A    between atoms: _176  and  _177
REMARK   71  A    between atoms: _186  and  _188
REMARK   72  A    between atoms: _188  and  _189
REMARK   73  A    between atoms: _188  and  _191
REMARK   74  A    between atoms: _191  and  _192
REMARK   75  A    between atoms: _192  and  _193
REMARK   76  A    between atoms: _196  and  _198
REMARK   77  A    between atoms: _198  and  _199
REMARK   78  A    between atoms: _198  and  _201
REMARK   79  A    between atoms: _201  and  _202
REMARK   80  A    between atoms: _207  and  _209
REMARK   81  A    between atoms: _209  and  _210
REMARK   82  A    between atoms: _209  and  _212
REMARK   83  A    between atoms: _212  and  _213
REMARK   84  A    between atoms: _216  and  _218
REMARK   85  A    between atoms: _218  and  _219
REMARK   86  A    between atoms: _218  and  _221
REMARK   87  A    between atoms: _221  and  _222
REMARK   88  A    between atoms: _225  and  _227
REMARK   89  A    between atoms: _227  and  _228
REMARK   90  A    between atoms: _227  and  _230
REMARK   91  A    between atoms: _230  and  _231
REMARK   92  A    between atoms: _236  and  _238
REMARK   93  A    between atoms: _238  and  _239
REMARK   94  A    between atoms: _238  and  _241
REMARK   95  A    between atoms: _241  and  _242
REMARK   96  A    between atoms: _247  and  _248
REMARK   97  A    between atoms: _250  and  _252
REMARK   98  A    between atoms: _252  and  _253
REMARK   99  A    between atoms: _252  and  _255
REMARK  100  A    between atoms: _255  and  _256
REMARK  101  A    between atoms: _259  and  _261
REMARK  102  A    between atoms: _261  and  _262
REMARK  103  A    between atoms: _261  and  _264
REMARK  104  A    between atoms: _264  and  _265
REMARK  105  A    between atoms: _270  and  _272
REMARK  106  A    between atoms: _272  and  _273
REMARK  107  A    between atoms: _272  and  _275
REMARK  108  A    between atoms: _275  and  _276
REMARK  109  A    between atoms: _281  and  _283
REMARK  110  A    between atoms: _283  and  _284
REMARK  111  A    between atoms: _283  and  _286
REMARK  112  A    between atoms: _286  and  _287
REMARK  113  A    between atoms: _290  and  _292
REMARK  114  A    between atoms: _292  and  _293
REMARK  115  A    between atoms: _292  and  _295
REMARK  116  A    between atoms: _298  and  _300
REMARK  117  A    between atoms: _300  and  _301
REMARK  118  A    between atoms: _300  and  _303
REMARK  119  A    between atoms: _303  and  _304
REMARK  120  A    between atoms: _307  and  _309
REMARK  121  A    between atoms: _309  and  _310
REMARK  122  A    between atoms: _309  and  _312
REMARK  123  A    between atoms: _312  and  _313
REMARK  124  A    between atoms: _313  and  _314
REMARK  125  A    between atoms: _317  and  _319
REMARK  126  A    between atoms: _319  and  _320
REMARK  127  A    between atoms: _323  and  _325
REMARK  128  A    between atoms: _325  and  _326
REMARK  129  A    between atoms: _325  and  _328
REMARK  130  A    between atoms: _328  and  _329
REMARK  131  A    between atoms: _332  and  _334
REMARK  132  A    between atoms: _334  and  _335
REMARK  133  A    between atoms: _334  and  _337
REMARK  134  A    between atoms: _337  and  _338
REMARK  135  A    between atoms: _338  and  _339
REMARK  136  A    between atoms: _342  and  _344
REMARK  137  A    between atoms: _344  and  _345
REMARK  138  A    between atoms: _344  and  _347
REMARK  139  A    between atoms: _347  and  _348
REMARK  140  A    between atoms: _348  and  _349
REMARK  141  A    between atoms: _349  and  _350
REMARK  142  A    between atoms: _359  and  _361
REMARK  143  A    between atoms: _361  and  _362
REMARK  144  A    between atoms: _361  and  _364
REMARK  145  A    between atoms: _364  and  _365
REMARK  146  A    between atoms: _375  and  _377
REMARK  147  A    between atoms: _377  and  _378
REMARK  148  A    between atoms: _377  and  _380
REMARK  149  A    between atoms: _380  and  _381
REMARK  150  A    between atoms: _381  and  _382
REMARK  151  A    between atoms: _384  and  _386
REMARK  152  A    between atoms: _386  and  _387
REMARK  153  A    between atoms: _390  and  _392
REMARK  154  A    between atoms: _392  and  _393
REMARK  155  A    between atoms: _392  and  _395
REMARK  156  A    between atoms: _395  and  _396
REMARK  157  A    between atoms: _401  and  _403
REMARK  158  A    between atoms: _403  and  _404
REMARK  159  A    between atoms: _406  and  _408
REMARK  160  A    between atoms: _408  and  _409
REMARK  161  A    between atoms: _408  and  _411
REMARK  162  A    between atoms: _414  and  _416
REMARK  163  A    between atoms: _416  and  _417
REMARK  164  A    between atoms: _420  and  _422
REMARK  165  A    between atoms: _422  and  _423
REMARK  166  A    between atoms: _422  and  _425
REMARK  167  A    between atoms: _425  and  _426
REMARK  168  A    between atoms: _431  and  _433
REMARK  169  A    between atoms: _433  and  _434
REMARK  170  A    between atoms: _433  and  _436
REMARK  171  A    between atoms: _436  and  _437
REMARK  172  A    between atoms: _437  and  _438
REMARK  173  A    between atoms: _438  and  _439
REMARK  174  A    between atoms: _439  and  _440
REMARK  175  A    between atoms: _444  and  _446
REMARK  176  A    between atoms: _446  and  _447
REMARK  177  A    between atoms: _446  and  _449
REMARK  178  A    between atoms: _449  and  _450
REMARK  179  A    between atoms: _453  and  _455
REMARK  180  A    between atoms: _455  and  _456
REMARK  181  A    between atoms: _455  and  _458
REMARK  182  A    between atoms: _458  and  _459
REMARK  183  A    between atoms: _464  and  _466
REMARK  184  A    between atoms: _466  and  _467
REMARK  185  A    between atoms: _469  and  _471
REMARK  186  A    between atoms: _471  and  _472
REMARK  187  A    between atoms: _471  and  _474
REMARK  188  A    between atoms: _474  and  _475
REMARK  189  A    between atoms: _475  and  _476
REMARK  190  A    between atoms: _476  and  _477
REMARK  191  A    between atoms: _477  and  _478
REMARK  192  A    between atoms: _482  and  _484
REMARK  193  A    between atoms: _484  and  _485
REMARK  194  A    between atoms: _484  and  _487
REMARK  195  A    between atoms: _487  and  _488
REMARK  196  A    between atoms: _488  and  _489
REMARK  197  A    between atoms: _489  and  _490
REMARK  198  A    between atoms: _499  and  _501
REMARK  199  A    between atoms: _501  and  _502
REMARK  200  A    between atoms: _501  and  _504
REMARK  201  A    between atoms: _504  and  _505
REMARK  202  A    between atoms: _510  and  _511
REMARK  203  A    between atoms: _513  and  _515
REMARK  204  A    between atoms: _515  and  _516
REMARK  205  A    between atoms: _515  and  _518
REMARK  206  A    between atoms: _518  and  _519
REMARK  207  A    between atoms: _519  and  _520
REMARK  208  A    between atoms: _520  and  _521
REMARK  209  A    between atoms: _521  and  _522
REMARK  210  A    between atoms: _526  and  _528
REMARK  211  A    between atoms: _528  and  _529
REMARK  212  A    between atoms: _528  and  _531
REMARK  213  A    between atoms: _531  and  _532
REMARK  214  A    between atoms: _534  and  _536
REMARK  215  A    between atoms: _536  and  _537
REMARK  216  A    between atoms: _536  and  _539
REMARK  217  A    between atoms: _539  and  _540
REMARK  218  A    between atoms: _543  and  _545
REMARK  219  A    between atoms: _545  and  _546
REMARK  220  A    between atoms: _545  and  _548
REMARK  221  A    between atoms: _548  and  _549
REMARK  222  A    between atoms: _549  and  _550
REMARK  223  A    between atoms: _553  and  _555
REMARK  224  A    between atoms: _555  and  _556
REMARK  225  A    between atoms: _559  and  _561
REMARK  226  A    between atoms: _561  and  _562
REMARK  227  A    between atoms: _561  and  _564
REMARK  228  A    between atoms: _564  and  _565
REMARK  229  A    between atoms: _567  and  _569
REMARK  230  A    between atoms: _569  and  _570
REMARK  231  A    between atoms: _572  and  _574
REMARK  232  A    between atoms: _574  and  _575
REMARK  233  A    between atoms: _574  and  _577
REMARK  234  A    between atoms: _577  and  _578
REMARK  235  A    between atoms: _581  and  _583
REMARK  236  A    between atoms: _583  and  _584
REMARK  237  A    between atoms: _586  and  _588
REMARK  238  A    between atoms: _588  and  _589
REMARK  239  A    between atoms: _588  and  _591
REMARK  240  A    between atoms: _591  and  _592
REMARK  241  A    between atoms: _597  and  _599
REMARK  242  A    between atoms: _599  and  _600
REMARK  243  A    between atoms: _599  and  _602
REMARK  244  A    between atoms: _602  and  _603
REMARK  245  A    between atoms: _603  and  _604
REMARK  246  A    between atoms: _611  and  _612
REMARK  247  A    between atoms: _612  and  _628
REMARK  248  A    between atoms: _613  and  _615
REMARK  249  A    between atoms: _615  and  _616
REMARK  250  A    between atoms: _616  and  _617
REMARK  251  A    between atoms: _621  and  _623
REMARK  252  A    between atoms: _623  and  _624
REMARK  253  A    between atoms: _623  and  _631
REMARK  254  A    between atoms: _624  and  _625
REMARK  255  A    between atoms: _625  and  _626
REMARK  256  A    between atoms: _626  and  _627
REMARK  257  A    between atoms: _627  and  _628
REMARK  258  A    between atoms: _633  and  _635
REMARK  259  A    between atoms: _635  and  _636
REMARK  260  A    between atoms: _635  and  _638
REMARK  261  A    between atoms: _638  and  _639
REMARK  262  A    between atoms: _642  and  _644
REMARK  263  A    between atoms: _644  and  _645
REMARK  264  A    between atoms: _647  and  _649
REMARK  265  A    between atoms: _649  and  _650
REMARK  266  A    between atoms: _653  and  _655
REMARK  267  A    between atoms: _655  and  _656
REMARK  268  A    between atoms: _655  and  _658
REMARK  269  A    between atoms: _658  and  _659
REMARK  270  A    between atoms: _664  and  _665
REMARK                            x       y       z     vdW  Elec       q    Type
REMARK                         _______ _______ _______ _____ _____    ______ ____
ROOT
ATOM      1  O   HOH     1      29.055  27.384  20.582  0.00  0.00    +0.000 OA
ENDROOT
TORSDOF 0
REMARK  Name = ../refined-set-2016/4el0/4el0_pocket.pdb
REMARK  270 active torsions:
REMARK  status: ('A' for Active; 'I' for Inactive)
REMARK    1  A    between atoms: _1  and  _3
REMARK    2  A    between atoms: _3  and  _4
REMARK    3  A    between atoms: _3  and  _6
REMARK    4  A    between atoms: _6  and  _7
REMARK    5  A    between atoms: _12  and  _13
REMARK    6  A    between atoms: _15  and  _17
REMARK    7  A    between atoms: _17  and  _18
REMARK    8  A    between atoms: _17  and  _20
REMARK    9  A    between atoms: _20  and  _21
REMARK   10  A    between atoms: _21  and  _22
REMARK   11  A    between atoms: _25  and  _27
REMARK   12  A    between atoms: _27  and  _28
REMARK   13  A    between atoms: _27  and  _30
REMARK   14  A    between atoms: _30  and  _31
REMARK   15  A    between atoms: _36  and  _38
REMARK   16  A    between atoms: _38  and  _39
REMARK   17  A    between atoms: _41  and  _43
REMARK   18  A    between atoms: _43  and  _44
REMARK   19  A    between atoms: _46  and  _48
REMARK   20  A    between atoms: _48  and  _49
REMARK   21  A    between atoms: _48  and  _51
REMARK   22  A    between atoms: _51  and  _52
REMARK   23  A    between atoms: _55  and  _57
REMARK   24  A    between atoms: _57  and  _58
REMARK   25  A    between atoms: _60  and  _62
REMARK   26  A    between atoms: _62  and  _63
REMARK   27  A    between atoms: _62  and  _65
REMARK   28  A    between atoms: _66  and  _67
REMARK   29  A    between atoms: _67  and  _68
REMARK   30  A    between atoms: _77  and  _79
REMARK   31  A    between atoms: _79  and  _80
REMARK   32  A    between atoms: _79  and  _82
REMARK   33  A    between atoms: _82  and  _83
REMARK   34  A    between atoms: _86  and  _88
REMARK   35  A    between atoms: _88  and  _89
REMARK   36  A    between atoms: _92  and  _94
REMARK   37  A    between atoms: _94  and  _95
REMARK   38  A    between atoms: _94  and  _97
REMARK   39  A    between atoms: _97  and  _98
REMARK   40  A    between atoms: _104  and  _106
REMARK   41  A    between atoms: _106  and  _107
REMARK   42  A    between atoms: _106  and  _109
REMARK   43  A    between atoms: _109  and  _110
REMARK   44  A    between atoms: _115  and  _117
REMARK   45  A    between atoms: _117  and  _118
REMARK   46  A    between atoms: _117  and  _120
REMARK   47  A    between atoms: _120  and  _121
REMARK   48  A    between atoms: _124  and  _126
REMARK   49  A    between atoms: _126  and  _127
REMARK   50  A    between atoms: _126  and  _129
REMARK   51  A    between atoms: _129  and  _130
REMARK   52  A    between atoms: _135  and  _137
REMARK   53  A    between atoms: _137  and  _138
REMARK   54  A    between atoms: _137  and  _140
REMARK   55  A    between atoms: _140  and  _141
REMARK   56  A    between atoms: _147  and  _149
REMARK   57  A    between atoms: _149  and  _150
REMARK   58  A    between atoms: _149  and  _152
REMARK   59  A    between atoms: _152  and  _153
REMARK   60  A    between atoms: _159  and  _161
REMARK   61  A    between atoms: _161  and  _162
REMARK   62  A    between atoms: _161  and  _164
REMARK   63  A    between atoms: _164  and  _165
REMARK   64  A    between atoms: _165  and  _166
REMARK   65  A    between atoms: _169  and  _171
REMARK   66  A    between atoms: _171  and  _172
REMARK   67  A    between atoms: _171  and  _174
REMARK   68  A    between atoms: _174  and  _175
REMARK   69  A    between atoms: _175  and  _176
REMARK   70  A    between atoms: _176  and  _177
REMARK   71  A    between atoms: _186  and  _188
REMARK   72  A    between atoms: _188  and  _189
REMARK   73  A    between atoms: _188  and  _191
REMARK   74  A    between atoms: _191  and  _192
REMARK   75  A    between atoms: _192  and  _193
REMARK   76  A    between atoms: _196  and  _198
REMARK   77  A    between atoms: _198  and  _199
REMARK   78  A    between atoms: _198  and  _201
REMARK   79  A    between atoms: _201  and  _202
REMARK   80  A    between atoms: _207  and  _209
REMARK   81  A    between atoms: _209  and  _210
REMARK   82  A    between atoms: _209  and  _212
REMARK   83  A    between atoms: _212  and  _213
REMARK   84  A    between atoms: _216  and  _218
REMARK   85  A    between atoms: _218  and  _219
REMARK   86  A    between atoms: _218  and  _221
REMARK   87  A    between atoms: _221  and  _222
REMARK   88  A    between atoms: _225  and  _227
REMARK   89  A    between atoms: _227  and  _228
REMARK   90  A    between atoms: _227  and  _230
REMARK   91  A    between atoms: _230  and  _231
REMARK   92  A    between atoms: _236  and  _238
REMARK   93  A    between atoms: _238  and  _239
REMARK   94  A    between atoms: _238  and  _241
REMARK   95  A    between atoms: _241  and  _242
REMARK   96  A    between atoms: _247  and  _248
REMARK   97  A    between atoms: _250  and  _252
REMARK   98  A    between atoms: _252  and  _253
REMARK   99  A    between atoms: _252  and  _255
REMARK  100  A    between atoms: _255  and  _256
REMARK  101  A    between atoms: _259  and  _261
REMARK  102  A    between atoms: _261  and  _262
REMARK  103  A    between atoms: _261  and  _264
REMARK  104  A    between atoms: _264  and  _265
REMARK  105  A    between atoms: _270  and  _272
REMARK  106  A    between atoms: _272  and  _273
REMARK  107  A    between atoms: _272  and  _275
REMARK  108  A    between atoms: _275  and  _276
REMARK  109  A    between atoms: _281  and  _283
REMARK  110  A    between atoms: _283  and  _284
REMARK  111  A    between atoms: _283  and  _286
REMARK  112  A    between atoms: _286  and  _287
REMARK  113  A    between atoms: _290  and  _292
REMARK  114  A    between atoms: _292  and  _293
REMARK  115  A    between atoms: _292  and  _295
REMARK  116  A    between atoms: _298  and  _300
REMARK  117  A    between atoms: _300  and  _301
REMARK  118  A    between atoms: _300  and  _303
REMARK  119  A    between atoms: _303  and  _304
REMARK  120  A    between atoms: _307  and  _309
REMARK  121  A    between atoms: _309  and  _310
REMARK  122  A    between atoms: _309  and  _312
REMARK  123  A    between atoms: _312  and  _313
REMARK  124  A    between atoms: _313  and  _314
REMARK  125  A    between atoms: _317  and  _319
REMARK  126  A    between atoms: _319  and  _320
REMARK  127  A    between atoms: _323  and  _325
REMARK  128  A    between atoms: _325  and  _326
REMARK  129  A    between atoms: _325  and  _328
REMARK  130  A    between atoms: _328  and  _329
REMARK  131  A    between atoms: _332  and  _334
REMARK  132  A    between atoms: _334  and  _335
REMARK  133  A    between atoms: _334  and  _337
REMARK  134  A    between atoms: _337  and  _338
REMARK  135  A    between atoms: _338  and  _339
REMARK  136  A    between atoms: _342  and  _344
REMARK  137  A    between atoms: _344  and  _345
REMARK  138  A    between atoms: _344  and  _347
REMARK  139  A    between atoms: _347  and  _348
REMARK  140  A    between atoms: _348  and  _349
REMARK  141  A    between atoms: _349  and  _350
REMARK  142  A    between atoms: _359  and  _361
REMARK  143  A    between atoms: _361  and  _362
REMARK  144  A    between atoms: _361  and  _364
REMARK  145  A    between atoms: _364  and  _365
REMARK  146  A    between atoms: _375  and  _377
REMARK  147  A    between atoms: _377  and  _378
REMARK  148  A    between atoms: _377  and  _380
REMARK  149  A    between atoms: _380  and  _381
REMARK  150  A    between atoms: _381  and  _382
REMARK  151  A    between atoms: _384  and  _386
REMARK  152  A    between atoms: _386  and  _387
REMARK  153  A    between atoms: _390  and  _392
REMARK  154  A    between atoms: _392  and  _393
REMARK  155  A    between atoms: _392  and  _395
REMARK  156  A    between atoms: _395  and  _396
REMARK  157  A    between atoms: _401  and  _403
REMARK  158  A    between atoms: _403  and  _404
REMARK  159  A    between atoms: _406  and  _408
REMARK  160  A    between atoms: _408  and  _409
REMARK  161  A    between atoms: _408  and  _411
REMARK  162  A    between atoms: _414  and  _416
REMARK  163  A    between atoms: _416  and  _417
REMARK  164  A    between atoms: _420  and  _422
REMARK  165  A    between atoms: _422  and  _423
REMARK  166  A    between atoms: _422  and  _425
REMARK  167  A    between atoms: _425  and  _426
REMARK  168  A    between atoms: _431  and  _433
REMARK  169  A    between atoms: _433  and  _434
REMARK  170  A    between atoms: _433  and  _436
REMARK  171  A    between atoms: _436  and  _437
REMARK  172  A    between atoms: _437  and  _438
REMARK  173  A    between atoms: _438  and  _439
REMARK  174  A    between atoms: _439  and  _440
REMARK  175  A    between atoms: _444  and  _446
REMARK  176  A    between atoms: _446  and  _447
REMARK  177  A    between atoms: _446  and  _449
REMARK  178  A    between atoms: _449  and  _450
REMARK  179  A    between atoms: _453  and  _455
REMARK  180  A    between atoms: _455  and  _456
REMARK  181  A    between atoms: _455  and  _458
REMARK  182  A    between atoms: _458  and  _459
REMARK  183  A    between atoms: _464  and  _466
REMARK  184  A    between atoms: _466  and  _467
REMARK  185  A    between atoms: _469  and  _471
REMARK  186  A    between atoms: _471  and  _472
REMARK  187  A    between atoms: _471  and  _474
REMARK  188  A    between atoms: _474  and  _475
REMARK  189  A    between atoms: _475  and  _476
REMARK  190  A    between atoms: _476  and  _477
REMARK  191  A    between atoms: _477  and  _478
REMARK  192  A    between atoms: _482  and  _484
REMARK  193  A    between atoms: _484  and  _485
REMARK  194  A    between atoms: _484  and  _487
REMARK  195  A    between atoms: _487  and  _488
REMARK  196  A    between atoms: _488  and  _489
REMARK  197  A    between atoms: _489  and  _490
REMARK  198  A    between atoms: _499  and  _501
REMARK  199  A    between atoms: _501  and  _502
REMARK  200  A    between atoms: _501  and  _504
REMARK  201  A    between atoms: _504  and  _505
REMARK  202  A    between atoms: _510  and  _511
REMARK  203  A    between atoms: _513  and  _515
REMARK  204  A    between atoms: _515  and  _516
REMARK  205  A    between atoms: _515  and  _518
REMARK  206  A    between atoms: _518  and  _519
REMARK  207  A    between atoms: _519  and  _520
REMARK  208  A    between atoms: _520  and  _521
REMARK  209  A    between atoms: _521  and  _522
REMARK  210  A    between atoms: _526  and  _528
REMARK  211  A    between atoms: _528  and  _529
REMARK  212  A    between atoms: _528  and  _531
REMARK  213  A    between atoms: _531  and  _532
REMARK  214  A    between atoms: _534  and  _536
REMARK  215  A    between atoms: _536  and  _537
REMARK  216  A    between atoms: _536  and  _539
REMARK  217  A    between atoms: _539  and  _540
REMARK  218  A    between atoms: _543  and  _545
REMARK  219  A    between atoms: _545  and  _546
REMARK  220  A    between atoms: _545  and  _548
REMARK  221  A    between atoms: _548  and  _549
REMARK  222  A    between atoms: _549  and  _550
REMARK  223  A    between atoms: _553  and  _555
REMARK  224  A    between atoms: _555  and  _556
REMARK  225  A    between atoms: _559  and  _561
REMARK  226  A    between atoms: _561  and  _562
REMARK  227  A    between atoms: _561  and  _564
REMARK  228  A    between atoms: _564  and  _565
REMARK  229  A    between atoms: _567  and  _569
REMARK  230  A    between atoms: _569  and  _570
REMARK  231  A    between atoms: _572  and  _574
REMARK  232  A    between atoms: _574  and  _575
REMARK  233  A    between atoms: _574  and  _577
REMARK  234  A    between atoms: _577  and  _578
REMARK  235  A    between atoms: _581  and  _583
REMARK  236  A    between atoms: _583  and  _584
REMARK  237  A    between atoms: _586  and  _588
REMARK  238  A    between atoms: _588  and  _589
REMARK  239  A    between atoms: _588  and  _591
REMARK  240  A    between atoms: _591  and  _592
REMARK  241  A    between atoms: _597  and  _599
REMARK  242  A    between atoms: _599  and  _600
REMARK  243  A    between atoms: _599  and  _602
REMARK  244  A    between atoms: _602  and  _603
REMARK  245  A    between atoms: _603  and  _604
REMARK  246  A    between atoms: _611  and  _612
REMARK  247  A    between atoms: _612  and  _628
REMARK  248  A    between atoms: _613  and  _615
REMARK  249  A    between atoms: _615  and  _616
REMARK  250  A    between atoms: _616  and  _617
REMARK  251  A    between atoms: _621  and  _623
REMARK  252  A    between atoms: _623  and  _624
REMARK  253  A    between atoms: _623  and  _631
REMARK  254  A    between atoms: _624  and  _625
REMARK  255  A    between atoms: _625  and  _626
REMARK  256  A    between atoms: _626  and  _627
REMARK  257  A    between atoms: _627  and  _628
REMARK  258  A    between atoms: _633  and  _635
REMARK  259  A    between atoms: _635  and  _636
REMARK  260  A    between atoms: _635  and  _638
REMARK  261  A    between atoms: _638  and  _639
REMARK  262  A    between atoms: _642  and  _644
REMARK  263  A    between atoms: _644  and  _645
REMARK  264  A    between atoms: _647  and  _649
REMARK  265  A    between atoms: _649  and  _650
REMARK  266  A    between atoms: _653  and  _655
REMARK  267  A    between atoms: _655  and  _656
REMARK  268  A    between atoms: _655  and  _658
REMARK  269  A    between atoms: _658  and  _659
REMARK  270  A    between atoms: _664  and  _665
REMARK                            x       y       z     vdW  Elec       q    Type
REMARK                         _______ _______ _______ _____ _____    ______ ____
ROOT
ATOM      1  O   HOH     1      26.164  16.533  28.603  0.00  0.00    +0.000 OA
ENDROOT
TORSDOF 0
REMARK  Name = ../refined-set-2016/4el0/4el0_pocket.pdb
REMARK  270 active torsions:
REMARK  status: ('A' for Active; 'I' for Inactive)
REMARK    1  A    between atoms: _1  and  _3
REMARK    2  A    between atoms: _3  and  _4
REMARK    3  A    between atoms: _3  and  _6
REMARK    4  A    between atoms: _6  and  _7
REMARK    5  A    between atoms: _12  and  _13
REMARK    6  A    between atoms: _15  and  _17
REMARK    7  A    between atoms: _17  and  _18
REMARK    8  A    between atoms: _17  and  _20
REMARK    9  A    between atoms: _20  and  _21
REMARK   10  A    between atoms: _21  and  _22
REMARK   11  A    between atoms: _25  and  _27
REMARK   12  A    between atoms: _27  and  _28
REMARK   13  A    between atoms: _27  and  _30
REMARK   14  A    between atoms: _30  and  _31
REMARK   15  A    between atoms: _36  and  _38
REMARK   16  A    between atoms: _38  and  _39
REMARK   17  A    between atoms: _41  and  _43
REMARK   18  A    between atoms: _43  and  _44
REMARK   19  A    between atoms: _46  and  _48
REMARK   20  A    between atoms: _48  and  _49
REMARK   21  A    between atoms: _48  and  _51
REMARK   22  A    between atoms: _51  and  _52
REMARK   23  A    between atoms: _55  and  _57
REMARK   24  A    between atoms: _57  and  _58
REMARK   25  A    between atoms: _60  and  _62
REMARK   26  A    between atoms: _62  and  _63
REMARK   27  A    between atoms: _62  and  _65
REMARK   28  A    between atoms: _66  and  _67
REMARK   29  A    between atoms: _67  and  _68
REMARK   30  A    between atoms: _77  and  _79
REMARK   31  A    between atoms: _79  and  _80
REMARK   32  A    between atoms: _79  and  _82
REMARK   33  A    between atoms: _82  and  _83
REMARK   34  A    between atoms: _86  and  _88
REMARK   35  A    between atoms: _88  and  _89
REMARK   36  A    between atoms: _92  and  _94
REMARK   37  A    between atoms: _94  and  _95
REMARK   38  A    between atoms: _94  and  _97
REMARK   39  A    between atoms: _97  and  _98
REMARK   40  A    between atoms: _104  and  _106
REMARK   41  A    between atoms: _106  and  _107
REMARK   42  A    between atoms: _106  and  _109
REMARK   43  A    between atoms: _109  and  _110
REMARK   44  A    between atoms: _115  and  _117
REMARK   45  A    between atoms: _117  and  _118
REMARK   46  A    between atoms: _117  and  _120
REMARK   47  A    between atoms: _120  and  _121
REMARK   48  A    between atoms: _124  and  _126
REMARK   49  A    between atoms: _126  and  _127
REMARK   50  A    between atoms: _126  and  _129
REMARK   51  A    between atoms: _129  and  _130
REMARK   52  A    between atoms: _135  and  _137
REMARK   53  A    between atoms: _137  and  _138
REMARK   54  A    between atoms: _137  and  _140
REMARK   55  A    between atoms: _140  and  _141
REMARK   56  A    between atoms: _147  and  _149
REMARK   57  A    between atoms: _149  and  _150
REMARK   58  A    between atoms: _149  and  _152
REMARK   59  A    between atoms: _152  and  _153
REMARK   60  A    between atoms: _159  and  _161
REMARK   61  A    between atoms: _161  and  _162
REMARK   62  A    between atoms: _161  and  _164
REMARK   63  A    between atoms: _164  and  _165
REMARK   64  A    between atoms: _165  and  _166
REMARK   65  A    between atoms: _169  and  _171
REMARK   66  A    between atoms: _171  and  _172
REMARK   67  A    between atoms: _171  and  _174
REMARK   68  A    between atoms: _174  and  _175
REMARK   69  A    between atoms: _175  and  _176
REMARK   70  A    between atoms: _176  and  _177
REMARK   71  A    between atoms: _186  and  _188
REMARK   72  A    between atoms: _188  and  _189
REMARK   73  A    between atoms: _188  and  _191
REMARK   74  A    between atoms: _191  and  _192
REMARK   75  A    between atoms: _192  and  _193
REMARK   76  A    between atoms: _196  and  _198
REMARK   77  A    between atoms: _198  and  _199
REMARK   78  A    between atoms: _198  and  _201
REMARK   79  A    between atoms: _201  and  _202
REMARK   80  A    between atoms: _207  and  _209
REMARK   81  A    between atoms: _209  and  _210
REMARK   82  A    between atoms: _209  and  _212
REMARK   83  A    between atoms: _212  and  _213
REMARK   84  A    between atoms: _216  and  _218
REMARK   85  A    between atoms: _218  and  _219
REMARK   86  A    between atoms: _218  and  _221
REMARK   87  A    between atoms: _221  and  _222
REMARK   88  A    between atoms: _225  and  _227
REMARK   89  A    between atoms: _227  and  _228
REMARK   90  A    between atoms: _227  and  _230
REMARK   91  A    between atoms: _230  and  _231
REMARK   92  A    between atoms: _236  and  _238
REMARK   93  A    between atoms: _238  and  _239
REMARK   94  A    between atoms: _238  and  _241
REMARK   95  A    between atoms: _241  and  _242
REMARK   96  A    between atoms: _247  and  _248
REMARK   97  A    between atoms: _250  and  _252
REMARK   98  A    between atoms: _252  and  _253
REMARK   99  A    between atoms: _252  and  _255
REMARK  100  A    between atoms: _255  and  _256
REMARK  101  A    between atoms: _259  and  _261
REMARK  102  A    between atoms: _261  and  _262
REMARK  103  A    between atoms: _261  and  _264
REMARK  104  A    between atoms: _264  and  _265
REMARK  105  A    between atoms: _270  and  _272
REMARK  106  A    between atoms: _272  and  _273
REMARK  107  A    between atoms: _272  and  _275
REMARK  108  A    between atoms: _275  and  _276
REMARK  109  A    between atoms: _281  and  _283
REMARK  110  A    between atoms: _283  and  _284
REMARK  111  A    between atoms: _283  and  _286
REMARK  112  A    between atoms: _286  and  _287
REMARK  113  A    between atoms: _290  and  _292
REMARK  114  A    between atoms: _292  and  _293
REMARK  115  A    between atoms: _292  and  _295
REMARK  116  A    between atoms: _298  and  _300
REMARK  117  A    between atoms: _300  and  _301
REMARK  118  A    between atoms: _300  and  _303
REMARK  119  A    between atoms: _303  and  _304
REMARK  120  A    between atoms: _307  and  _309
REMARK  121  A    between atoms: _309  and  _310
REMARK  122  A    between atoms: _309  and  _312
REMARK  123  A    between atoms: _312  and  _313
REMARK  124  A    between atoms: _313  and  _314
REMARK  125  A    between atoms: _317  and  _319
REMARK  126  A    between atoms: _319  and  _320
REMARK  127  A    between atoms: _323  and  _325
REMARK  128  A    between atoms: _325  and  _326
REMARK  129  A    between atoms: _325  and  _328
REMARK  130  A    between atoms: _328  and  _329
REMARK  131  A    between atoms: _332  and  _334
REMARK  132  A    between atoms: _334  and  _335
REMARK  133  A    between atoms: _334  and  _337
REMARK  134  A    between atoms: _337  and  _338
REMARK  135  A    between atoms: _338  and  _339
REMARK  136  A    between atoms: _342  and  _344
REMARK  137  A    between atoms: _344  and  _345
REMARK  138  A    between atoms: _344  and  _347
REMARK  139  A    between atoms: _347  and  _348
REMARK  140  A    between atoms: _348  and  _349
REMARK  141  A    between atoms: _349  and  _350
REMARK  142  A    between atoms: _359  and  _361
REMARK  143  A    between atoms: _361  and  _362
REMARK  144  A    between atoms: _361  and  _364
REMARK  145  A    between atoms: _364  and  _365
REMARK  146  A    between atoms: _375  and  _377
REMARK  147  A    between atoms: _377  and  _378
REMARK  148  A    between atoms: _377  and  _380
REMARK  149  A    between atoms: _380  and  _381
REMARK  150  A    between atoms: _381  and  _382
REMARK  151  A    between atoms: _384  and  _386
REMARK  152  A    between atoms: _386  and  _387
REMARK  153  A    between atoms: _390  and  _392
REMARK  154  A    between atoms: _392  and  _393
REMARK  155  A    between atoms: _392  and  _395
REMARK  156  A    between atoms: _395  and  _396
REMARK  157  A    between atoms: _401  and  _403
REMARK  158  A    between atoms: _403  and  _404
REMARK  159  A    between atoms: _406  and  _408
REMARK  160  A    between atoms: _408  and  _409
REMARK  161  A    between atoms: _408  and  _411
REMARK  162  A    between atoms: _414  and  _416
REMARK  163  A    between atoms: _416  and  _417
REMARK  164  A    between atoms: _420  and  _422
REMARK  165  A    between atoms: _422  and  _423
REMARK  166  A    between atoms: _422  and  _425
REMARK  167  A    between atoms: _425  and  _426
REMARK  168  A    between atoms: _431  and  _433
REMARK  169  A    between atoms: _433  and  _434
REMARK  170  A    between atoms: _433  and  _436
REMARK  171  A    between atoms: _436  and  _437
REMARK  172  A    between atoms: _437  and  _438
REMARK  173  A    between atoms: _438  and  _439
REMARK  174  A    between atoms: _439  and  _440
REMARK  175  A    between atoms: _444  and  _446
REMARK  176  A    between atoms: _446  and  _447
REMARK  177  A    between atoms: _446  and  _449
REMARK  178  A    between atoms: _449  and  _450
REMARK  179  A    between atoms: _453  and  _455
REMARK  180  A    between atoms: _455  and  _456
REMARK  181  A    between atoms: _455  and  _458
REMARK  182  A    between atoms: _458  and  _459
REMARK  183  A    between atoms: _464  and  _466
REMARK  184  A    between atoms: _466  and  _467
REMARK  185  A    between atoms: _469  and  _471
REMARK  186  A    between atoms: _471  and  _472
REMARK  187  A    between atoms: _471  and  _474
REMARK  188  A    between atoms: _474  and  _475
REMARK  189  A    between atoms: _475  and  _476
REMARK  190  A    between atoms: _476  and  _477
REMARK  191  A    between atoms: _477  and  _478
REMARK  192  A    between atoms: _482  and  _484
REMARK  193  A    between atoms: _484  and  _485
REMARK  194  A    between atoms: _484  and  _487
REMARK  195  A    between atoms: _487  and  _488
REMARK  196  A    between atoms: _488  and  _489
REMARK  197  A    between atoms: _489  and  _490
REMARK  198  A    between atoms: _499  and  _501
REMARK  199  A    between atoms: _501  and  _502
REMARK  200  A    between atoms: _501  and  _504
REMARK  201  A    between atoms: _504  and  _505
REMARK  202  A    between atoms: _510  and  _511
REMARK  203  A    between atoms: _513  and  _515
REMARK  204  A    between atoms: _515  and  _516
REMARK  205  A    between atoms: _515  and  _518
REMARK  206  A    between atoms: _518  and  _519
REMARK  207  A    between atoms: _519  and  _520
REMARK  208  A    between atoms: _520  and  _521
REMARK  209  A    between atoms: _521  and  _522
REMARK  210  A    between atoms: _526  and  _528
REMARK  211  A    between atoms: _528  and  _529
REMARK  212  A    between atoms: _528  and  _531
REMARK  213  A    between atoms: _531  and  _532
REMARK  214  A    between atoms: _534  and  _536
REMARK  215  A    between atoms: _536  and  _537
REMARK  216  A    between atoms: _536  and  _539
REMARK  217  A    between atoms: _539  and  _540
REMARK  218  A    between atoms: _543  and  _545
REMARK  219  A    between atoms: _545  and  _546
REMARK  220  A    between atoms: _545  and  _548
REMARK  221  A    between atoms: _548  and  _549
REMARK  222  A    between atoms: _549  and  _550
REMARK  223  A    between atoms: _553  and  _555
REMARK  224  A    between atoms: _555  and  _556
REMARK  225  A    between atoms: _559  and  _561
REMARK  226  A    between atoms: _561  and  _562
REMARK  227  A    between atoms: _561  and  _564
REMARK  228  A    between atoms: _564  and  _565
REMARK  229  A    between atoms: _567  and  _569
REMARK  230  A    between atoms: _569  and  _570
REMARK  231  A    between atoms: _572  and  _574
REMARK  232  A    between atoms: _574  and  _575
REMARK  233  A    between atoms: _574  and  _577
REMARK  234  A    between atoms: _577  and  _578
REMARK  235  A    between atoms: _581  and  _583
REMARK  236  A    between atoms: _583  and  _584
REMARK  237  A    between atoms: _586  and  _588
REMARK  238  A    between atoms: _588  and  _589
REMARK  239  A    between atoms: _588  and  _591
REMARK  240  A    between atoms: _591  and  _592
REMARK  241  A    between atoms: _597  and  _599
REMARK  242  A    between atoms: _599  and  _600
REMARK  243  A    between atoms: _599  and  _602
REMARK  244  A    between atoms: _602  and  _603
REMARK  245  A    between atoms: _603  and  _604
REMARK  246  A    between atoms: _611  and  _612
REMARK  247  A    between atoms: _612  and  _628
REMARK  248  A    between atoms: _613  and  _615
REMARK  249  A    between atoms: _615  and  _616
REMARK  250  A    between atoms: _616  and  _617
REMARK  251  A    between atoms: _621  and  _623
REMARK  252  A    between atoms: _623  and  _624
REMARK  253  A    between atoms: _623  and  _631
REMARK  254  A    between atoms: _624  and  _625
REMARK  255  A    between atoms: _625  and  _626
REMARK  256  A    between atoms: _626  and  _627
REMARK  257  A    between atoms: _627  and  _628
REMARK  258  A    between atoms: _633  and  _635
REMARK  259  A    between atoms: _635  and  _636
REMARK  260  A    between atoms: _635  and  _638
REMARK  261  A    between atoms: _638  and  _639
REMARK  262  A    between atoms: _642  and  _644
REMARK  263  A    between atoms: _644  and  _645
REMARK  264  A    between atoms: _647  and  _649
REMARK  265  A    between atoms: _649  and  _650
REMARK  266  A    between atoms: _653  and  _655
REMARK  267  A    between atoms: _655  and  _656
REMARK  268  A    between atoms: _655  and  _658
REMARK  269  A    between atoms: _658  and  _659
REMARK  270  A    between atoms: _664  and  _665
REMARK                            x       y       z     vdW  Elec       q    Type
REMARK                         _______ _______ _______ _____ _____    ______ ____
ROOT
ATOM      1  O   HOH     1      44.349  22.859  32.284  0.00  0.00    +0.000 OA
ENDROOT
TORSDOF 0
REMARK  Name = ../refined-set-2016/4el0/4el0_pocket.pdb
REMARK  270 active torsions:
REMARK  status: ('A' for Active; 'I' for Inactive)
REMARK    1  A    between atoms: _1  and  _3
REMARK    2  A    between atoms: _3  and  _4
REMARK    3  A    between atoms: _3  and  _6
REMARK    4  A    between atoms: _6  and  _7
REMARK    5  A    between atoms: _12  and  _13
REMARK    6  A    between atoms: _15  and  _17
REMARK    7  A    between atoms: _17  and  _18
REMARK    8  A    between atoms: _17  and  _20
REMARK    9  A    between atoms: _20  and  _21
REMARK   10  A    between atoms: _21  and  _22
REMARK   11  A    between atoms: _25  and  _27
REMARK   12  A    between atoms: _27  and  _28
REMARK   13  A    between atoms: _27  and  _30
REMARK   14  A    between atoms: _30  and  _31
REMARK   15  A    between atoms: _36  and  _38
REMARK   16  A    between atoms: _38  and  _39
REMARK   17  A    between atoms: _41  and  _43
REMARK   18  A    between atoms: _43  and  _44
REMARK   19  A    between atoms: _46  and  _48
REMARK   20  A    between atoms: _48  and  _49
REMARK   21  A    between atoms: _48  and  _51
REMARK   22  A    between atoms: _51  and  _52
REMARK   23  A    between atoms: _55  and  _57
REMARK   24  A    between atoms: _57  and  _58
REMARK   25  A    between atoms: _60  and  _62
REMARK   26  A    between atoms: _62  and  _63
REMARK   27  A    between atoms: _62  and  _65
REMARK   28  A    between atoms: _66  and  _67
REMARK   29  A    between atoms: _67  and  _68
REMARK   30  A    between atoms: _77  and  _79
REMARK   31  A    between atoms: _79  and  _80
REMARK   32  A    between atoms: _79  and  _82
REMARK   33  A    between atoms: _82  and  _83
REMARK   34  A    between atoms: _86  and  _88
REMARK   35  A    between atoms: _88  and  _89
REMARK   36  A    between atoms: _92  and  _94
REMARK   37  A    between atoms: _94  and  _95
REMARK   38  A    between atoms: _94  and  _97
REMARK   39  A    between atoms: _97  and  _98
REMARK   40  A    between atoms: _104  and  _106
REMARK   41  A    between atoms: _106  and  _107
REMARK   42  A    between atoms: _106  and  _109
REMARK   43  A    between atoms: _109  and  _110
REMARK   44  A    between atoms: _115  and  _117
REMARK   45  A    between atoms: _117  and  _118
REMARK   46  A    between atoms: _117  and  _120
REMARK   47  A    between atoms: _120  and  _121
REMARK   48  A    between atoms: _124  and  _126
REMARK   49  A    between atoms: _126  and  _127
REMARK   50  A    between atoms: _126  and  _129
REMARK   51  A    between atoms: _129  and  _130
REMARK   52  A    between atoms: _135  and  _137
REMARK   53  A    between atoms: _137  and  _138
REMARK   54  A    between atoms: _137  and  _140
REMARK   55  A    between atoms: _140  and  _141
REMARK   56  A    between atoms: _147  and  _149
REMARK   57  A    between atoms: _149  and  _150
REMARK   58  A    between atoms: _149  and  _152
REMARK   59  A    between atoms: _152  and  _153
REMARK   60  A    between atoms: _159  and  _161
REMARK   61  A    between atoms: _161  and  _162
REMARK   62  A    between atoms: _161  and  _164
REMARK   63  A    between atoms: _164  and  _165
REMARK   64  A    between atoms: _165  and  _166
REMARK   65  A    between atoms: _169  and  _171
REMARK   66  A    between atoms: _171  and  _172
REMARK   67  A    between atoms: _171  and  _174
REMARK   68  A    between atoms: _174  and  _175
REMARK   69  A    between atoms: _175  and  _176
REMARK   70  A    between atoms: _176  and  _177
REMARK   71  A    between atoms: _186  and  _188
REMARK   72  A    between atoms: _188  and  _189
REMARK   73  A    between atoms: _188  and  _191
REMARK   74  A    between atoms: _191  and  _192
REMARK   75  A    between atoms: _192  and  _193
REMARK   76  A    between atoms: _196  and  _198
REMARK   77  A    between atoms: _198  and  _199
REMARK   78  A    between atoms: _198  and  _201
REMARK   79  A    between atoms: _201  and  _202
REMARK   80  A    between atoms: _207  and  _209
REMARK   81  A    between atoms: _209  and  _210
REMARK   82  A    between atoms: _209  and  _212
REMARK   83  A    between atoms: _212  and  _213
REMARK   84  A    between atoms: _216  and  _218
REMARK   85  A    between atoms: _218  and  _219
REMARK   86  A    between atoms: _218  and  _221
REMARK   87  A    between atoms: _221  and  _222
REMARK   88  A    between atoms: _225  and  _227
REMARK   89  A    between atoms: _227  and  _228
REMARK   90  A    between atoms: _227  and  _230
REMARK   91  A    between atoms: _230  and  _231
REMARK   92  A    between atoms: _236  and  _238
REMARK   93  A    between atoms: _238  and  _239
REMARK   94  A    between atoms: _238  and  _241
REMARK   95  A    between atoms: _241  and  _242
REMARK   96  A    between atoms: _247  and  _248
REMARK   97  A    between atoms: _250  and  _252
REMARK   98  A    between atoms: _252  and  _253
REMARK   99  A    between atoms: _252  and  _255
REMARK  100  A    between atoms: _255  and  _256
REMARK  101  A    between atoms: _259  and  _261
REMARK  102  A    between atoms: _261  and  _262
REMARK  103  A    between atoms: _261  and  _264
REMARK  104  A    between atoms: _264  and  _265
REMARK  105  A    between atoms: _270  and  _272
REMARK  106  A    between atoms: _272  and  _273
REMARK  107  A    between atoms: _272  and  _275
REMARK  108  A    between atoms: _275  and  _276
REMARK  109  A    between atoms: _281  and  _283
REMARK  110  A    between atoms: _283  and  _284
REMARK  111  A    between atoms: _283  and  _286
REMARK  112  A    between atoms: _286  and  _287
REMARK  113  A    between atoms: _290  and  _292
REMARK  114  A    between atoms: _292  and  _293
REMARK  115  A    between atoms: _292  and  _295
REMARK  116  A    between atoms: _298  and  _300
REMARK  117  A    between atoms: _300  and  _301
REMARK  118  A    between atoms: _300  and  _303
REMARK  119  A    between atoms: _303  and  _304
REMARK  120  A    between atoms: _307  and  _309
REMARK  121  A    between atoms: _309  and  _310
REMARK  122  A    between atoms: _309  and  _312
REMARK  123  A    between atoms: _312  and  _313
REMARK  124  A    between atoms: _313  and  _314
REMARK  125  A    between atoms: _317  and  _319
REMARK  126  A    between atoms: _319  and  _320
REMARK  127  A    between atoms: _323  and  _325
REMARK  128  A    between atoms: _325  and  _326
REMARK  129  A    between atoms: _325  and  _328
REMARK  130  A    between atoms: _328  and  _329
REMARK  131  A    between atoms: _332  and  _334
REMARK  132  A    between atoms: _334  and  _335
REMARK  133  A    between atoms: _334  and  _337
REMARK  134  A    between atoms: _337  and  _338
REMARK  135  A    between atoms: _338  and  _339
REMARK  136  A    between atoms: _342  and  _344
REMARK  137  A    between atoms: _344  and  _345
REMARK  138  A    between atoms: _344  and  _347
REMARK  139  A    between atoms: _347  and  _348
REMARK  140  A    between atoms: _348  and  _349
REMARK  141  A    between atoms: _349  and  _350
REMARK  142  A    between atoms: _359  and  _361
REMARK  143  A    between atoms: _361  and  _362
REMARK  144  A    between atoms: _361  and  _364
REMARK  145  A    between atoms: _364  and  _365
REMARK  146  A    between atoms: _375  and  _377
REMARK  147  A    between atoms: _377  and  _378
REMARK  148  A    between atoms: _377  and  _380
REMARK  149  A    between atoms: _380  and  _381
REMARK  150  A    between atoms: _381  and  _382
REMARK  151  A    between atoms: _384  and  _386
REMARK  152  A    between atoms: _386  and  _387
REMARK  153  A    between atoms: _390  and  _392
REMARK  154  A    between atoms: _392  and  _393
REMARK  155  A    between atoms: _392  and  _395
REMARK  156  A    between atoms: _395  and  _396
REMARK  157  A    between atoms: _401  and  _403
REMARK  158  A    between atoms: _403  and  _404
REMARK  159  A    between atoms: _406  and  _408
REMARK  160  A    between atoms: _408  and  _409
REMARK  161  A    between atoms: _408  and  _411
REMARK  162  A    between atoms: _414  and  _416
REMARK  163  A    between atoms: _416  and  _417
REMARK  164  A    between atoms: _420  and  _422
REMARK  165  A    between atoms: _422  and  _423
REMARK  166  A    between atoms: _422  and  _425
REMARK  167  A    between atoms: _425  and  _426
REMARK  168  A    between atoms: _431  and  _433
REMARK  169  A    between atoms: _433  and  _434
REMARK  170  A    between atoms: _433  and  _436
REMARK  171  A    between atoms: _436  and  _437
REMARK  172  A    between atoms: _437  and  _438
REMARK  173  A    between atoms: _438  and  _439
REMARK  174  A    between atoms: _439  and  _440
REMARK  175  A    between atoms: _444  and  _446
REMARK  176  A    between atoms: _446  and  _447
REMARK  177  A    between atoms: _446  and  _449
REMARK  178  A    between atoms: _449  and  _450
REMARK  179  A    between atoms: _453  and  _455
REMARK  180  A    between atoms: _455  and  _456
REMARK  181  A    between atoms: _455  and  _458
REMARK  182  A    between atoms: _458  and  _459
REMARK  183  A    between atoms: _464  and  _466
REMARK  184  A    between atoms: _466  and  _467
REMARK  185  A    between atoms: _469  and  _471
REMARK  186  A    between atoms: _471  and  _472
REMARK  187  A    between atoms: _471  and  _474
REMARK  188  A    between atoms: _474  and  _475
REMARK  189  A    between atoms: _475  and  _476
REMARK  190  A    between atoms: _476  and  _477
REMARK  191  A    between atoms: _477  and  _478
REMARK  192  A    between atoms: _482  and  _484
REMARK  193  A    between atoms: _484  and  _485
REMARK  194  A    between atoms: _484  and  _487
REMARK  195  A    between atoms: _487  and  _488
REMARK  196  A    between atoms: _488  and  _489
REMARK  197  A    between atoms: _489  and  _490
REMARK  198  A    between atoms: _499  and  _501
REMARK  199  A    between atoms: _501  and  _502
REMARK  200  A    between atoms: _501  and  _504
REMARK  201  A    between atoms: _504  and  _505
REMARK  202  A    between atoms: _510  and  _511
REMARK  203  A    between atoms: _513  and  _515
REMARK  204  A    between atoms: _515  and  _516
REMARK  205  A    between atoms: _515  and  _518
REMARK  206  A    between atoms: _518  and  _519
REMARK  207  A    between atoms: _519  and  _520
REMARK  208  A    between atoms: _520  and  _521
REMARK  209  A    between atoms: _521  and  _522
REMARK  210  A    between atoms: _526  and  _528
REMARK  211  A    between atoms: _528  and  _529
REMARK  212  A    between atoms: _528  and  _531
REMARK  213  A    between atoms: _531  and  _532
REMARK  214  A    between atoms: _534  and  _536
REMARK  215  A    between atoms: _536  and  _537
REMARK  216  A    between atoms: _536  and  _539
REMARK  217  A    between atoms: _539  and  _540
REMARK  218  A    between atoms: _543  and  _545
REMARK  219  A    between atoms: _545  and  _546
REMARK  220  A    between atoms: _545  and  _548
REMARK  221  A    between atoms: _548  and  _549
REMARK  222  A    between atoms: _549  and  _550
REMARK  223  A    between atoms: _553  and  _555
REMARK  224  A    between atoms: _555  and  _556
REMARK  225  A    between atoms: _559  and  _561
REMARK  226  A    between atoms: _561  and  _562
REMARK  227  A    between atoms: _561  and  _564
REMARK  228  A    between atoms: _564  and  _565
REMARK  229  A    between atoms: _567  and  _569
REMARK  230  A    between atoms: _569  and  _570
REMARK  231  A    between atoms: _572  and  _574
REMARK  232  A    between atoms: _574  and  _575
REMARK  233  A    between atoms: _574  and  _577
REMARK  234  A    between atoms: _577  and  _578
REMARK  235  A    between atoms: _581  and  _583
REMARK  236  A    between atoms: _583  and  _584
REMARK  237  A    between atoms: _586  and  _588
REMARK  238  A    between atoms: _588  and  _589
REMARK  239  A    between atoms: _588  and  _591
REMARK  240  A    between atoms: _591  and  _592
REMARK  241  A    between atoms: _597  and  _599
REMARK  242  A    between atoms: _599  and  _600
REMARK  243  A    between atoms: _599  and  _602
REMARK  244  A    between atoms: _602  and  _603
REMARK  245  A    between atoms: _603  and  _604
REMARK  246  A    between atoms: _611  and  _612
REMARK  247  A    between atoms: _612  and  _628
REMARK  248  A    between atoms: _613  and  _615
REMARK  249  A    between atoms: _615  and  _616
REMARK  250  A    between atoms: _616  and  _617
REMARK  251  A    between atoms: _621  and  _623
REMARK  252  A    between atoms: _623  and  _624
REMARK  253  A    between atoms: _623  and  _631
REMARK  254  A    between atoms: _624  and  _625
REMARK  255  A    between atoms: _625  and  _626
REMARK  256  A    between atoms: _626  and  _627
REMARK  257  A    between atoms: _627  and  _628
REMARK  258  A    between atoms: _633  and  _635
REMARK  259  A    between atoms: _635  and  _636
REMARK  260  A    between atoms: _635  and  _638
REMARK  261  A    between atoms: _638  and  _639
REMARK  262  A    between atoms: _642  and  _644
REMARK  263  A    between atoms: _644  and  _645
REMARK  264  A    between atoms: _647  and  _649
REMARK  265  A    between atoms: _649  and  _650
REMARK  266  A    between atoms: _653  and  _655
REMARK  267  A    between atoms: _655  and  _656
REMARK  268  A    between atoms: _655  and  _658
REMARK  269  A    between atoms: _658  and  _659
REMARK  270  A    between atoms: _664  and  _665
REMARK                            x       y       z     vdW  Elec       q    Type
REMARK                         _______ _______ _______ _____ _____    ______ ____
ROOT
ATOM      1  O   HOH     1      30.360  26.235  29.404  0.00  0.00    +0.000 OA
ENDROOT
TORSDOF 0
REMARK  Name = ../refined-set-2016/4el0/4el0_pocket.pdb
REMARK  270 active torsions:
REMARK  status: ('A' for Active; 'I' for Inactive)
REMARK    1  A    between atoms: _1  and  _3
REMARK    2  A    between atoms: _3  and  _4
REMARK    3  A    between atoms: _3  and  _6
REMARK    4  A    between atoms: _6  and  _7
REMARK    5  A    between atoms: _12  and  _13
REMARK    6  A    between atoms: _15  and  _17
REMARK    7  A    between atoms: _17  and  _18
REMARK    8  A    between atoms: _17  and  _20
REMARK    9  A    between atoms: _20  and  _21
REMARK   10  A    between atoms: _21  and  _22
REMARK   11  A    between atoms: _25  and  _27
REMARK   12  A    between atoms: _27  and  _28
REMARK   13  A    between atoms: _27  and  _30
REMARK   14  A    between atoms: _30  and  _31
REMARK   15  A    between atoms: _36  and  _38
REMARK   16  A    between atoms: _38  and  _39
REMARK   17  A    between atoms: _41  and  _43
REMARK   18  A    between atoms: _43  and  _44
REMARK   19  A    between atoms: _46  and  _48
REMARK   20  A    between atoms: _48  and  _49
REMARK   21  A    between atoms: _48  and  _51
REMARK   22  A    between atoms: _51  and  _52
REMARK   23  A    between atoms: _55  and  _57
REMARK   24  A    between atoms: _57  and  _58
REMARK   25  A    between atoms: _60  and  _62
REMARK   26  A    between atoms: _62  and  _63
REMARK   27  A    between atoms: _62  and  _65
REMARK   28  A    between atoms: _66  and  _67
REMARK   29  A    between atoms: _67  and  _68
REMARK   30  A    between atoms: _77  and  _79
REMARK   31  A    between atoms: _79  and  _80
REMARK   32  A    between atoms: _79  and  _82
REMARK   33  A    between atoms: _82  and  _83
REMARK   34  A    between atoms: _86  and  _88
REMARK   35  A    between atoms: _88  and  _89
REMARK   36  A    between atoms: _92  and  _94
REMARK   37  A    between atoms: _94  and  _95
REMARK   38  A    between atoms: _94  and  _97
REMARK   39  A    between atoms: _97  and  _98
REMARK   40  A    between atoms: _104  and  _106
REMARK   41  A    between atoms: _106  and  _107
REMARK   42  A    between atoms: _106  and  _109
REMARK   43  A    between atoms: _109  and  _110
REMARK   44  A    between atoms: _115  and  _117
REMARK   45  A    between atoms: _117  and  _118
REMARK   46  A    between atoms: _117  and  _120
REMARK   47  A    between atoms: _120  and  _121
REMARK   48  A    between atoms: _124  and  _126
REMARK   49  A    between atoms: _126  and  _127
REMARK   50  A    between atoms: _126  and  _129
REMARK   51  A    between atoms: _129  and  _130
REMARK   52  A    between atoms: _135  and  _137
REMARK   53  A    between atoms: _137  and  _138
REMARK   54  A    between atoms: _137  and  _140
REMARK   55  A    between atoms: _140  and  _141
REMARK   56  A    between atoms: _147  and  _149
REMARK   57  A    between atoms: _149  and  _150
REMARK   58  A    between atoms: _149  and  _152
REMARK   59  A    between atoms: _152  and  _153
REMARK   60  A    between atoms: _159  and  _161
REMARK   61  A    between atoms: _161  and  _162
REMARK   62  A    between atoms: _161  and  _164
REMARK   63  A    between atoms: _164  and  _165
REMARK   64  A    between atoms: _165  and  _166
REMARK   65  A    between atoms: _169  and  _171
REMARK   66  A    between atoms: _171  and  _172
REMARK   67  A    between atoms: _171  and  _174
REMARK   68  A    between atoms: _174  and  _175
REMARK   69  A    between atoms: _175  and  _176
REMARK   70  A    between atoms: _176  and  _177
REMARK   71  A    between atoms: _186  and  _188
REMARK   72  A    between atoms: _188  and  _189
REMARK   73  A    between atoms: _188  and  _191
REMARK   74  A    between atoms: _191  and  _192
REMARK   75  A    between atoms: _192  and  _193
REMARK   76  A    between atoms: _196  and  _198
REMARK   77  A    between atoms: _198  and  _199
REMARK   78  A    between atoms: _198  and  _201
REMARK   79  A    between atoms: _201  and  _202
REMARK   80  A    between atoms: _207  and  _209
REMARK   81  A    between atoms: _209  and  _210
REMARK   82  A    between atoms: _209  and  _212
REMARK   83  A    between atoms: _212  and  _213
REMARK   84  A    between atoms: _216  and  _218
REMARK   85  A    between atoms: _218  and  _219
REMARK   86  A    between atoms: _218  and  _221
REMARK   87  A    between atoms: _221  and  _222
REMARK   88  A    between atoms: _225  and  _227
REMARK   89  A    between atoms: _227  and  _228
REMARK   90  A    between atoms: _227  and  _230
REMARK   91  A    between atoms: _230  and  _231
REMARK   92  A    between atoms: _236  and  _238
REMARK   93  A    between atoms: _238  and  _239
REMARK   94  A    between atoms: _238  and  _241
REMARK   95  A    between atoms: _241  and  _242
REMARK   96  A    between atoms: _247  and  _248
REMARK   97  A    between atoms: _250  and  _252
REMARK   98  A    between atoms: _252  and  _253
REMARK   99  A    between atoms: _252  and  _255
REMARK  100  A    between atoms: _255  and  _256
REMARK  101  A    between atoms: _259  and  _261
REMARK  102  A    between atoms: _261  and  _262
REMARK  103  A    between atoms: _261  and  _264
REMARK  104  A    between atoms: _264  and  _265
REMARK  105  A    between atoms: _270  and  _272
REMARK  106  A    between atoms: _272  and  _273
REMARK  107  A    between atoms: _272  and  _275
REMARK  108  A    between atoms: _275  and  _276
REMARK  109  A    between atoms: _281  and  _283
REMARK  110  A    between atoms: _283  and  _284
REMARK  111  A    between atoms: _283  and  _286
REMARK  112  A    between atoms: _286  and  _287
REMARK  113  A    between atoms: _290  and  _292
REMARK  114  A    between atoms: _292  and  _293
REMARK  115  A    between atoms: _292  and  _295
REMARK  116  A    between atoms: _298  and  _300
REMARK  117  A    between atoms: _300  and  _301
REMARK  118  A    between atoms: _300  and  _303
REMARK  119  A    between atoms: _303  and  _304
REMARK  120  A    between atoms: _307  and  _309
REMARK  121  A    between atoms: _309  and  _310
REMARK  122  A    between atoms: _309  and  _312
REMARK  123  A    between atoms: _312  and  _313
REMARK  124  A    between atoms: _313  and  _314
REMARK  125  A    between atoms: _317  and  _319
REMARK  126  A    between atoms: _319  and  _320
REMARK  127  A    between atoms: _323  and  _325
REMARK  128  A    between atoms: _325  and  _326
REMARK  129  A    between atoms: _325  and  _328
REMARK  130  A    between atoms: _328  and  _329
REMARK  131  A    between atoms: _332  and  _334
REMARK  132  A    between atoms: _334  and  _335
REMARK  133  A    between atoms: _334  and  _337
REMARK  134  A    between atoms: _337  and  _338
REMARK  135  A    between atoms: _338  and  _339
REMARK  136  A    between atoms: _342  and  _344
REMARK  137  A    between atoms: _344  and  _345
REMARK  138  A    between atoms: _344  and  _347
REMARK  139  A    between atoms: _347  and  _348
REMARK  140  A    between atoms: _348  and  _349
REMARK  141  A    between atoms: _349  and  _350
REMARK  142  A    between atoms: _359  and  _361
REMARK  143  A    between atoms: _361  and  _362
REMARK  144  A    between atoms: _361  and  _364
REMARK  145  A    between atoms: _364  and  _365
REMARK  146  A    between atoms: _375  and  _377
REMARK  147  A    between atoms: _377  and  _378
REMARK  148  A    between atoms: _377  and  _380
REMARK  149  A    between atoms: _380  and  _381
REMARK  150  A    between atoms: _381  and  _382
REMARK  151  A    between atoms: _384  and  _386
REMARK  152  A    between atoms: _386  and  _387
REMARK  153  A    between atoms: _390  and  _392
REMARK  154  A    between atoms: _392  and  _393
REMARK  155  A    between atoms: _392  and  _395
REMARK  156  A    between atoms: _395  and  _396
REMARK  157  A    between atoms: _401  and  _403
REMARK  158  A    between atoms: _403  and  _404
REMARK  159  A    between atoms: _406  and  _408
REMARK  160  A    between atoms: _408  and  _409
REMARK  161  A    between atoms: _408  and  _411
REMARK  162  A    between atoms: _414  and  _416
REMARK  163  A    between atoms: _416  and  _417
REMARK  164  A    between atoms: _420  and  _422
REMARK  165  A    between atoms: _422  and  _423
REMARK  166  A    between atoms: _422  and  _425
REMARK  167  A    between atoms: _425  and  _426
REMARK  168  A    between atoms: _431  and  _433
REMARK  169  A    between atoms: _433  and  _434
REMARK  170  A    between atoms: _433  and  _436
REMARK  171  A    between atoms: _436  and  _437
REMARK  172  A    between atoms: _437  and  _438
REMARK  173  A    between atoms: _438  and  _439
REMARK  174  A    between atoms: _439  and  _440
REMARK  175  A    between atoms: _444  and  _446
REMARK  176  A    between atoms: _446  and  _447
REMARK  177  A    between atoms: _446  and  _449
REMARK  178  A    between atoms: _449  and  _450
REMARK  179  A    between atoms: _453  and  _455
REMARK  180  A    between atoms: _455  and  _456
REMARK  181  A    between atoms: _455  and  _458
REMARK  182  A    between atoms: _458  and  _459
REMARK  183  A    between atoms: _464  and  _466
REMARK  184  A    between atoms: _466  and  _467
REMARK  185  A    between atoms: _469  and  _471
REMARK  186  A    between atoms: _471  and  _472
REMARK  187  A    between atoms: _471  and  _474
REMARK  188  A    between atoms: _474  and  _475
REMARK  189  A    between atoms: _475  and  _476
REMARK  190  A    between atoms: _476  and  _477
REMARK  191  A    between atoms: _477  and  _478
REMARK  192  A    between atoms: _482  and  _484
REMARK  193  A    between atoms: _484  and  _485
REMARK  194  A    between atoms: _484  and  _487
REMARK  195  A    between atoms: _487  and  _488
REMARK  196  A    between atoms: _488  and  _489
REMARK  197  A    between atoms: _489  and  _490
REMARK  198  A    between atoms: _499  and  _501
REMARK  199  A    between atoms: _501  and  _502
REMARK  200  A    between atoms: _501  and  _504
REMARK  201  A    between atoms: _504  and  _505
REMARK  202  A    between atoms: _510  and  _511
REMARK  203  A    between atoms: _513  and  _515
REMARK  204  A    between atoms: _515  and  _516
REMARK  205  A    between atoms: _515  and  _518
REMARK  206  A    between atoms: _518  and  _519
REMARK  207  A    between atoms: _519  and  _520
REMARK  208  A    between atoms: _520  and  _521
REMARK  209  A    between atoms: _521  and  _522
REMARK  210  A    between atoms: _526  and  _528
REMARK  211  A    between atoms: _528  and  _529
REMARK  212  A    between atoms: _528  and  _531
REMARK  213  A    between atoms: _531  and  _532
REMARK  214  A    between atoms: _534  and  _536
REMARK  215  A    between atoms: _536  and  _537
REMARK  216  A    between atoms: _536  and  _539
REMARK  217  A    between atoms: _539  and  _540
REMARK  218  A    between atoms: _543  and  _545
REMARK  219  A    between atoms: _545  and  _546
REMARK  220  A    between atoms: _545  and  _548
REMARK  221  A    between atoms: _548  and  _549
REMARK  222  A    between atoms: _549  and  _550
REMARK  223  A    between atoms: _553  and  _555
REMARK  224  A    between atoms: _555  and  _556
REMARK  225  A    between atoms: _559  and  _561
REMARK  226  A    between atoms: _561  and  _562
REMARK  227  A    between atoms: _561  and  _564
REMARK  228  A    between atoms: _564  and  _565
REMARK  229  A    between atoms: _567  and  _569
REMARK  230  A    between atoms: _569  and  _570
REMARK  231  A    between atoms: _572  and  _574
REMARK  232  A    between atoms: _574  and  _575
REMARK  233  A    between atoms: _574  and  _577
REMARK  234  A    between atoms: _577  and  _578
REMARK  235  A    between atoms: _581  and  _583
REMARK  236  A    between atoms: _583  and  _584
REMARK  237  A    between atoms: _586  and  _588
REMARK  238  A    between atoms: _588  and  _589
REMARK  239  A    between atoms: _588  and  _591
REMARK  240  A    between atoms: _591  and  _592
REMARK  241  A    between atoms: _597  and  _599
REMARK  242  A    between atoms: _599  and  _600
REMARK  243  A    between atoms: _599  and  _602
REMARK  244  A    between atoms: _602  and  _603
REMARK  245  A    between atoms: _603  and  _604
REMARK  246  A    between atoms: _611  and  _612
REMARK  247  A    between atoms: _612  and  _628
REMARK  248  A    between atoms: _613  and  _615
REMARK  249  A    between atoms: _615  and  _616
REMARK  250  A    between atoms: _616  and  _617
REMARK  251  A    between atoms: _621  and  _623
REMARK  252  A    between atoms: _623  and  _624
REMARK  253  A    between atoms: _623  and  _631
REMARK  254  A    between atoms: _624  and  _625
REMARK  255  A    between atoms: _625  and  _626
REMARK  256  A    between atoms: _626  and  _627
REMARK  257  A    between atoms: _627  and  _628
REMARK  258  A    between atoms: _633  and  _635
REMARK  259  A    between atoms: _635  and  _636
REMARK  260  A    between atoms: _635  and  _638
REMARK  261  A    between atoms: _638  and  _639
REMARK  262  A    between atoms: _642  and  _644
REMARK  263  A    between atoms: _644  and  _645
REMARK  264  A    between atoms: _647  and  _649
REMARK  265  A    between atoms: _649  and  _650
REMARK  266  A    between atoms: _653  and  _655
REMARK  267  A    between atoms: _655  and  _656
REMARK  268  A    between atoms: _655  and  _658
REMARK  269  A    between atoms: _658  and  _659
REMARK  270  A    between atoms: _664  and  _665
REMARK                            x       y       z     vdW  Elec       q    Type
REMARK                         _______ _______ _______ _____ _____    ______ ____
ROOT
ATOM      1  O   HOH     1      28.187  27.386  27.697  0.00  0.00    +0.000 OA
ENDROOT
TORSDOF 0
REMARK  Name = ../refined-set-2016/4el0/4el0_pocket.pdb
REMARK  270 active torsions:
REMARK  status: ('A' for Active; 'I' for Inactive)
REMARK    1  A    between atoms: _1  and  _3
REMARK    2  A    between atoms: _3  and  _4
REMARK    3  A    between atoms: _3  and  _6
REMARK    4  A    between atoms: _6  and  _7
REMARK    5  A    between atoms: _12  and  _13
REMARK    6  A    between atoms: _15  and  _17
REMARK    7  A    between atoms: _17  and  _18
REMARK    8  A    between atoms: _17  and  _20
REMARK    9  A    between atoms: _20  and  _21
REMARK   10  A    between atoms: _21  and  _22
REMARK   11  A    between atoms: _25  and  _27
REMARK   12  A    between atoms: _27  and  _28
REMARK   13  A    between atoms: _27  and  _30
REMARK   14  A    between atoms: _30  and  _31
REMARK   15  A    between atoms: _36  and  _38
REMARK   16  A    between atoms: _38  and  _39
REMARK   17  A    between atoms: _41  and  _43
REMARK   18  A    between atoms: _43  and  _44
REMARK   19  A    between atoms: _46  and  _48
REMARK   20  A    between atoms: _48  and  _49
REMARK   21  A    between atoms: _48  and  _51
REMARK   22  A    between atoms: _51  and  _52
REMARK   23  A    between atoms: _55  and  _57
REMARK   24  A    between atoms: _57  and  _58
REMARK   25  A    between atoms: _60  and  _62
REMARK   26  A    between atoms: _62  and  _63
REMARK   27  A    between atoms: _62  and  _65
REMARK   28  A    between atoms: _66  and  _67
REMARK   29  A    between atoms: _67  and  _68
REMARK   30  A    between atoms: _77  and  _79
REMARK   31  A    between atoms: _79  and  _80
REMARK   32  A    between atoms: _79  and  _82
REMARK   33  A    between atoms: _82  and  _83
REMARK   34  A    between atoms: _86  and  _88
REMARK   35  A    between atoms: _88  and  _89
REMARK   36  A    between atoms: _92  and  _94
REMARK   37  A    between atoms: _94  and  _95
REMARK   38  A    between atoms: _94  and  _97
REMARK   39  A    between atoms: _97  and  _98
REMARK   40  A    between atoms: _104  and  _106
REMARK   41  A    between atoms: _106  and  _107
REMARK   42  A    between atoms: _106  and  _109
REMARK   43  A    between atoms: _109  and  _110
REMARK   44  A    between atoms: _115  and  _117
REMARK   45  A    between atoms: _117  and  _118
REMARK   46  A    between atoms: _117  and  _120
REMARK   47  A    between atoms: _120  and  _121
REMARK   48  A    between atoms: _124  and  _126
REMARK   49  A    between atoms: _126  and  _127
REMARK   50  A    between atoms: _126  and  _129
REMARK   51  A    between atoms: _129  and  _130
REMARK   52  A    between atoms: _135  and  _137
REMARK   53  A    between atoms: _137  and  _138
REMARK   54  A    between atoms: _137  and  _140
REMARK   55  A    between atoms: _140  and  _141
REMARK   56  A    between atoms: _147  and  _149
REMARK   57  A    between atoms: _149  and  _150
REMARK   58  A    between atoms: _149  and  _152
REMARK   59  A    between atoms: _152  and  _153
REMARK   60  A    between atoms: _159  and  _161
REMARK   61  A    between atoms: _161  and  _162
REMARK   62  A    between atoms: _161  and  _164
REMARK   63  A    between atoms: _164  and  _165
REMARK   64  A    between atoms: _165  and  _166
REMARK   65  A    between atoms: _169  and  _171
REMARK   66  A    between atoms: _171  and  _172
REMARK   67  A    between atoms: _171  and  _174
REMARK   68  A    between atoms: _174  and  _175
REMARK   69  A    between atoms: _175  and  _176
REMARK   70  A    between atoms: _176  and  _177
REMARK   71  A    between atoms: _186  and  _188
REMARK   72  A    between atoms: _188  and  _189
REMARK   73  A    between atoms: _188  and  _191
REMARK   74  A    between atoms: _191  and  _192
REMARK   75  A    between atoms: _192  and  _193
REMARK   76  A    between atoms: _196  and  _198
REMARK   77  A    between atoms: _198  and  _199
REMARK   78  A    between atoms: _198  and  _201
REMARK   79  A    between atoms: _201  and  _202
REMARK   80  A    between atoms: _207  and  _209
REMARK   81  A    between atoms: _209  and  _210
REMARK   82  A    between atoms: _209  and  _212
REMARK   83  A    between atoms: _212  and  _213
REMARK   84  A    between atoms: _216  and  _218
REMARK   85  A    between atoms: _218  and  _219
REMARK   86  A    between atoms: _218  and  _221
REMARK   87  A    between atoms: _221  and  _222
REMARK   88  A    between atoms: _225  and  _227
REMARK   89  A    between atoms: _227  and  _228
REMARK   90  A    between atoms: _227  and  _230
REMARK   91  A    between atoms: _230  and  _231
REMARK   92  A    between atoms: _236  and  _238
REMARK   93  A    between atoms: _238  and  _239
REMARK   94  A    between atoms: _238  and  _241
REMARK   95  A    between atoms: _241  and  _242
REMARK   96  A    between atoms: _247  and  _248
REMARK   97  A    between atoms: _250  and  _252
REMARK   98  A    between atoms: _252  and  _253
REMARK   99  A    between atoms: _252  and  _255
REMARK  100  A    between atoms: _255  and  _256
REMARK  101  A    between atoms: _259  and  _261
REMARK  102  A    between atoms: _261  and  _262
REMARK  103  A    between atoms: _261  and  _264
REMARK  104  A    between atoms: _264  and  _265
REMARK  105  A    between atoms: _270  and  _272
REMARK  106  A    between atoms: _272  and  _273
REMARK  107  A    between atoms: _272  and  _275
REMARK  108  A    between atoms: _275  and  _276
REMARK  109  A    between atoms: _281  and  _283
REMARK  110  A    between atoms: _283  and  _284
REMARK  111  A    between atoms: _283  and  _286
REMARK  112  A    between atoms: _286  and  _287
REMARK  113  A    between atoms: _290  and  _292
REMARK  114  A    between atoms: _292  and  _293
REMARK  115  A    between atoms: _292  and  _295
REMARK  116  A    between atoms: _298  and  _300
REMARK  117  A    between atoms: _300  and  _301
REMARK  118  A    between atoms: _300  and  _303
REMARK  119  A    between atoms: _303  and  _304
REMARK  120  A    between atoms: _307  and  _309
REMARK  121  A    between atoms: _309  and  _310
REMARK  122  A    between atoms: _309  and  _312
REMARK  123  A    between atoms: _312  and  _313
REMARK  124  A    between atoms: _313  and  _314
REMARK  125  A    between atoms: _317  and  _319
REMARK  126  A    between atoms: _319  and  _320
REMARK  127  A    between atoms: _323  and  _325
REMARK  128  A    between atoms: _325  and  _326
REMARK  129  A    between atoms: _325  and  _328
REMARK  130  A    between atoms: _328  and  _329
REMARK  131  A    between atoms: _332  and  _334
REMARK  132  A    between atoms: _334  and  _335
REMARK  133  A    between atoms: _334  and  _337
REMARK  134  A    between atoms: _337  and  _338
REMARK  135  A    between atoms: _338  and  _339
REMARK  136  A    between atoms: _342  and  _344
REMARK  137  A    between atoms: _344  and  _345
REMARK  138  A    between atoms: _344  and  _347
REMARK  139  A    between atoms: _347  and  _348
REMARK  140  A    between atoms: _348  and  _349
REMARK  141  A    between atoms: _349  and  _350
REMARK  142  A    between atoms: _359  and  _361
REMARK  143  A    between atoms: _361  and  _362
REMARK  144  A    between atoms: _361  and  _364
REMARK  145  A    between atoms: _364  and  _365
REMARK  146  A    between atoms: _375  and  _377
REMARK  147  A    between atoms: _377  and  _378
REMARK  148  A    between atoms: _377  and  _380
REMARK  149  A    between atoms: _380  and  _381
REMARK  150  A    between atoms: _381  and  _382
REMARK  151  A    between atoms: _384  and  _386
REMARK  152  A    between atoms: _386  and  _387
REMARK  153  A    between atoms: _390  and  _392
REMARK  154  A    between atoms: _392  and  _393
REMARK  155  A    between atoms: _392  and  _395
REMARK  156  A    between atoms: _395  and  _396
REMARK  157  A    between atoms: _401  and  _403
REMARK  158  A    between atoms: _403  and  _404
REMARK  159  A    between atoms: _406  and  _408
REMARK  160  A    between atoms: _408  and  _409
REMARK  161  A    between atoms: _408  and  _411
REMARK  162  A    between atoms: _414  and  _416
REMARK  163  A    between atoms: _416  and  _417
REMARK  164  A    between atoms: _420  and  _422
REMARK  165  A    between atoms: _422  and  _423
REMARK  166  A    between atoms: _422  and  _425
REMARK  167  A    between atoms: _425  and  _426
REMARK  168  A    between atoms: _431  and  _433
REMARK  169  A    between atoms: _433  and  _434
REMARK  170  A    between atoms: _433  and  _436
REMARK  171  A    between atoms: _436  and  _437
REMARK  172  A    between atoms: _437  and  _438
REMARK  173  A    between atoms: _438  and  _439
REMARK  174  A    between atoms: _439  and  _440
REMARK  175  A    between atoms: _444  and  _446
REMARK  176  A    between atoms: _446  and  _447
REMARK  177  A    between atoms: _446  and  _449
REMARK  178  A    between atoms: _449  and  _450
REMARK  179  A    between atoms: _453  and  _455
REMARK  180  A    between atoms: _455  and  _456
REMARK  181  A    between atoms: _455  and  _458
REMARK  182  A    between atoms: _458  and  _459
REMARK  183  A    between atoms: _464  and  _466
REMARK  184  A    between atoms: _466  and  _467
REMARK  185  A    between atoms: _469  and  _471
REMARK  186  A    between atoms: _471  and  _472
REMARK  187  A    between atoms: _471  and  _474
REMARK  188  A    between atoms: _474  and  _475
REMARK  189  A    between atoms: _475  and  _476
REMARK  190  A    between atoms: _476  and  _477
REMARK  191  A    between atoms: _477  and  _478
REMARK  192  A    between atoms: _482  and  _484
REMARK  193  A    between atoms: _484  and  _485
REMARK  194  A    between atoms: _484  and  _487
REMARK  195  A    between atoms: _487  and  _488
REMARK  196  A    between atoms: _488  and  _489
REMARK  197  A    between atoms: _489  and  _490
REMARK  198  A    between atoms: _499  and  _501
REMARK  199  A    between atoms: _501  and  _502
REMARK  200  A    between atoms: _501  and  _504
REMARK  201  A    between atoms: _504  and  _505
REMARK  202  A    between atoms: _510  and  _511
REMARK  203  A    between atoms: _513  and  _515
REMARK  204  A    between atoms: _515  and  _516
REMARK  205  A    between atoms: _515  and  _518
REMARK  206  A    between atoms: _518  and  _519
REMARK  207  A    between atoms: _519  and  _520
REMARK  208  A    between atoms: _520  and  _521
REMARK  209  A    between atoms: _521  and  _522
REMARK  210  A    between atoms: _526  and  _528
REMARK  211  A    between atoms: _528  and  _529
REMARK  212  A    between atoms: _528  and  _531
REMARK  213  A    between atoms: _531  and  _532
REMARK  214  A    between atoms: _534  and  _536
REMARK  215  A    between atoms: _536  and  _537
REMARK  216  A    between atoms: _536  and  _539
REMARK  217  A    between atoms: _539  and  _540
REMARK  218  A    between atoms: _543  and  _545
REMARK  219  A    between atoms: _545  and  _546
REMARK  220  A    between atoms: _545  and  _548
REMARK  221  A    between atoms: _548  and  _549
REMARK  222  A    between atoms: _549  and  _550
REMARK  223  A    between atoms: _553  and  _555
REMARK  224  A    between atoms: _555  and  _556
REMARK  225  A    between atoms: _559  and  _561
REMARK  226  A    between atoms: _561  and  _562
REMARK  227  A    between atoms: _561  and  _564
REMARK  228  A    between atoms: _564  and  _565
REMARK  229  A    between atoms: _567  and  _569
REMARK  230  A    between atoms: _569  and  _570
REMARK  231  A    between atoms: _572  and  _574
REMARK  232  A    between atoms: _574  and  _575
REMARK  233  A    between atoms: _574  and  _577
REMARK  234  A    between atoms: _577  and  _578
REMARK  235  A    between atoms: _581  and  _583
REMARK  236  A    between atoms: _583  and  _584
REMARK  237  A    between atoms: _586  and  _588
REMARK  238  A    between atoms: _588  and  _589
REMARK  239  A    between atoms: _588  and  _591
REMARK  240  A    between atoms: _591  and  _592
REMARK  241  A    between atoms: _597  and  _599
REMARK  242  A    between atoms: _599  and  _600
REMARK  243  A    between atoms: _599  and  _602
REMARK  244  A    between atoms: _602  and  _603
REMARK  245  A    between atoms: _603  and  _604
REMARK  246  A    between atoms: _611  and  _612
REMARK  247  A    between atoms: _612  and  _628
REMARK  248  A    between atoms: _613  and  _615
REMARK  249  A    between atoms: _615  and  _616
REMARK  250  A    between atoms: _616  and  _617
REMARK  251  A    between atoms: _621  and  _623
REMARK  252  A    between atoms: _623  and  _624
REMARK  253  A    between atoms: _623  and  _631
REMARK  254  A    between atoms: _624  and  _625
REMARK  255  A    between atoms: _625  and  _626
REMARK  256  A    between atoms: _626  and  _627
REMARK  257  A    between atoms: _627  and  _628
REMARK  258  A    between atoms: _633  and  _635
REMARK  259  A    between atoms: _635  and  _636
REMARK  260  A    between atoms: _635  and  _638
REMARK  261  A    between atoms: _638  and  _639
REMARK  262  A    between atoms: _642  and  _644
REMARK  263  A    between atoms: _644  and  _645
REMARK  264  A    between atoms: _647  and  _649
REMARK  265  A    between atoms: _649  and  _650
REMARK  266  A    between atoms: _653  and  _655
REMARK  267  A    between atoms: _655  and  _656
REMARK  268  A    between atoms: _655  and  _658
REMARK  269  A    between atoms: _658  and  _659
REMARK  270  A    between atoms: _664  and  _665
REMARK                            x       y       z     vdW  Elec       q    Type
REMARK                         _______ _______ _______ _____ _____    ______ ____
ROOT
ATOM      1  O   HOH     1      26.995  23.401  21.682  0.00  0.00    +0.000 OA
ENDROOT
TORSDOF 0
REMARK  Name = ../refined-set-2016/4el0/4el0_pocket.pdb
REMARK  270 active torsions:
REMARK  status: ('A' for Active; 'I' for Inactive)
REMARK    1  A    between atoms: _1  and  _3
REMARK    2  A    between atoms: _3  and  _4
REMARK    3  A    between atoms: _3  and  _6
REMARK    4  A    between atoms: _6  and  _7
REMARK    5  A    between atoms: _12  and  _13
REMARK    6  A    between atoms: _15  and  _17
REMARK    7  A    between atoms: _17  and  _18
REMARK    8  A    between atoms: _17  and  _20
REMARK    9  A    between atoms: _20  and  _21
REMARK   10  A    between atoms: _21  and  _22
REMARK   11  A    between atoms: _25  and  _27
REMARK   12  A    between atoms: _27  and  _28
REMARK   13  A    between atoms: _27  and  _30
REMARK   14  A    between atoms: _30  and  _31
REMARK   15  A    between atoms: _36  and  _38
REMARK   16  A    between atoms: _38  and  _39
REMARK   17  A    between atoms: _41  and  _43
REMARK   18  A    between atoms: _43  and  _44
REMARK   19  A    between atoms: _46  and  _48
REMARK   20  A    between atoms: _48  and  _49
REMARK   21  A    between atoms: _48  and  _51
REMARK   22  A    between atoms: _51  and  _52
REMARK   23  A    between atoms: _55  and  _57
REMARK   24  A    between atoms: _57  and  _58
REMARK   25  A    between atoms: _60  and  _62
REMARK   26  A    between atoms: _62  and  _63
REMARK   27  A    between atoms: _62  and  _65
REMARK   28  A    between atoms: _66  and  _67
REMARK   29  A    between atoms: _67  and  _68
REMARK   30  A    between atoms: _77  and  _79
REMARK   31  A    between atoms: _79  and  _80
REMARK   32  A    between atoms: _79  and  _82
REMARK   33  A    between atoms: _82  and  _83
REMARK   34  A    between atoms: _86  and  _88
REMARK   35  A    between atoms: _88  and  _89
REMARK   36  A    between atoms: _92  and  _94
REMARK   37  A    between atoms: _94  and  _95
REMARK   38  A    between atoms: _94  and  _97
REMARK   39  A    between atoms: _97  and  _98
REMARK   40  A    between atoms: _104  and  _106
REMARK   41  A    between atoms: _106  and  _107
REMARK   42  A    between atoms: _106  and  _109
REMARK   43  A    between atoms: _109  and  _110
REMARK   44  A    between atoms: _115  and  _117
REMARK   45  A    between atoms: _117  and  _118
REMARK   46  A    between atoms: _117  and  _120
REMARK   47  A    between atoms: _120  and  _121
REMARK   48  A    between atoms: _124  and  _126
REMARK   49  A    between atoms: _126  and  _127
REMARK   50  A    between atoms: _126  and  _129
REMARK   51  A    between atoms: _129  and  _130
REMARK   52  A    between atoms: _135  and  _137
REMARK   53  A    between atoms: _137  and  _138
REMARK   54  A    between atoms: _137  and  _140
REMARK   55  A    between atoms: _140  and  _141
REMARK   56  A    between atoms: _147  and  _149
REMARK   57  A    between atoms: _149  and  _150
REMARK   58  A    between atoms: _149  and  _152
REMARK   59  A    between atoms: _152  and  _153
REMARK   60  A    between atoms: _159  and  _161
REMARK   61  A    between atoms: _161  and  _162
REMARK   62  A    between atoms: _161  and  _164
REMARK   63  A    between atoms: _164  and  _165
REMARK   64  A    between atoms: _165  and  _166
REMARK   65  A    between atoms: _169  and  _171
REMARK   66  A    between atoms: _171  and  _172
REMARK   67  A    between atoms: _171  and  _174
REMARK   68  A    between atoms: _174  and  _175
REMARK   69  A    between atoms: _175  and  _176
REMARK   70  A    between atoms: _176  and  _177
REMARK   71  A    between atoms: _186  and  _188
REMARK   72  A    between atoms: _188  and  _189
REMARK   73  A    between atoms: _188  and  _191
REMARK   74  A    between atoms: _191  and  _192
REMARK   75  A    between atoms: _192  and  _193
REMARK   76  A    between atoms: _196  and  _198
REMARK   77  A    between atoms: _198  and  _199
REMARK   78  A    between atoms: _198  and  _201
REMARK   79  A    between atoms: _201  and  _202
REMARK   80  A    between atoms: _207  and  _209
REMARK   81  A    between atoms: _209  and  _210
REMARK   82  A    between atoms: _209  and  _212
REMARK   83  A    between atoms: _212  and  _213
REMARK   84  A    between atoms: _216  and  _218
REMARK   85  A    between atoms: _218  and  _219
REMARK   86  A    between atoms: _218  and  _221
REMARK   87  A    between atoms: _221  and  _222
REMARK   88  A    between atoms: _225  and  _227
REMARK   89  A    between atoms: _227  and  _228
REMARK   90  A    between atoms: _227  and  _230
REMARK   91  A    between atoms: _230  and  _231
REMARK   92  A    between atoms: _236  and  _238
REMARK   93  A    between atoms: _238  and  _239
REMARK   94  A    between atoms: _238  and  _241
REMARK   95  A    between atoms: _241  and  _242
REMARK   96  A    between atoms: _247  and  _248
REMARK   97  A    between atoms: _250  and  _252
REMARK   98  A    between atoms: _252  and  _253
REMARK   99  A    between atoms: _252  and  _255
REMARK  100  A    between atoms: _255  and  _256
REMARK  101  A    between atoms: _259  and  _261
REMARK  102  A    between atoms: _261  and  _262
REMARK  103  A    between atoms: _261  and  _264
REMARK  104  A    between atoms: _264  and  _265
REMARK  105  A    between atoms: _270  and  _272
REMARK  106  A    between atoms: _272  and  _273
REMARK  107  A    between atoms: _272  and  _275
REMARK  108  A    between atoms: _275  and  _276
REMARK  109  A    between atoms: _281  and  _283
REMARK  110  A    between atoms: _283  and  _284
REMARK  111  A    between atoms: _283  and  _286
REMARK  112  A    between atoms: _286  and  _287
REMARK  113  A    between atoms: _290  and  _292
REMARK  114  A    between atoms: _292  and  _293
REMARK  115  A    between atoms: _292  and  _295
REMARK  116  A    between atoms: _298  and  _300
REMARK  117  A    between atoms: _300  and  _301
REMARK  118  A    between atoms: _300  and  _303
REMARK  119  A    between atoms: _303  and  _304
REMARK  120  A    between atoms: _307  and  _309
REMARK  121  A    between atoms: _309  and  _310
REMARK  122  A    between atoms: _309  and  _312
REMARK  123  A    between atoms: _312  and  _313
REMARK  124  A    between atoms: _313  and  _314
REMARK  125  A    between atoms: _317  and  _319
REMARK  126  A    between atoms: _319  and  _320
REMARK  127  A    between atoms: _323  and  _325
REMARK  128  A    between atoms: _325  and  _326
REMARK  129  A    between atoms: _325  and  _328
REMARK  130  A    between atoms: _328  and  _329
REMARK  131  A    between atoms: _332  and  _334
REMARK  132  A    between atoms: _334  and  _335
REMARK  133  A    between atoms: _334  and  _337
REMARK  134  A    between atoms: _337  and  _338
REMARK  135  A    between atoms: _338  and  _339
REMARK  136  A    between atoms: _342  and  _344
REMARK  137  A    between atoms: _344  and  _345
REMARK  138  A    between atoms: _344  and  _347
REMARK  139  A    between atoms: _347  and  _348
REMARK  140  A    between atoms: _348  and  _349
REMARK  141  A    between atoms: _349  and  _350
REMARK  142  A    between atoms: _359  and  _361
REMARK  143  A    between atoms: _361  and  _362
REMARK  144  A    between atoms: _361  and  _364
REMARK  145  A    between atoms: _364  and  _365
REMARK  146  A    between atoms: _375  and  _377
REMARK  147  A    between atoms: _377  and  _378
REMARK  148  A    between atoms: _377  and  _380
REMARK  149  A    between atoms: _380  and  _381
REMARK  150  A    between atoms: _381  and  _382
REMARK  151  A    between atoms: _384  and  _386
REMARK  152  A    between atoms: _386  and  _387
REMARK  153  A    between atoms: _390  and  _392
REMARK  154  A    between atoms: _392  and  _393
REMARK  155  A    between atoms: _392  and  _395
REMARK  156  A    between atoms: _395  and  _396
REMARK  157  A    between atoms: _401  and  _403
REMARK  158  A    between atoms: _403  and  _404
REMARK  159  A    between atoms: _406  and  _408
REMARK  160  A    between atoms: _408  and  _409
REMARK  161  A    between atoms: _408  and  _411
REMARK  162  A    between atoms: _414  and  _416
REMARK  163  A    between atoms: _416  and  _417
REMARK  164  A    between atoms: _420  and  _422
REMARK  165  A    between atoms: _422  and  _423
REMARK  166  A    between atoms: _422  and  _425
REMARK  167  A    between atoms: _425  and  _426
REMARK  168  A    between atoms: _431  and  _433
REMARK  169  A    between atoms: _433  and  _434
REMARK  170  A    between atoms: _433  and  _436
REMARK  171  A    between atoms: _436  and  _437
REMARK  172  A    between atoms: _437  and  _438
REMARK  173  A    between atoms: _438  and  _439
REMARK  174  A    between atoms: _439  and  _440
REMARK  175  A    between atoms: _444  and  _446
REMARK  176  A    between atoms: _446  and  _447
REMARK  177  A    between atoms: _446  and  _449
REMARK  178  A    between atoms: _449  and  _450
REMARK  179  A    between atoms: _453  and  _455
REMARK  180  A    between atoms: _455  and  _456
REMARK  181  A    between atoms: _455  and  _458
REMARK  182  A    between atoms: _458  and  _459
REMARK  183  A    between atoms: _464  and  _466
REMARK  184  A    between atoms: _466  and  _467
REMARK  185  A    between atoms: _469  and  _471
REMARK  186  A    between atoms: _471  and  _472
REMARK  187  A    between atoms: _471  and  _474
REMARK  188  A    between atoms: _474  and  _475
REMARK  189  A    between atoms: _475  and  _476
REMARK  190  A    between atoms: _476  and  _477
REMARK  191  A    between atoms: _477  and  _478
REMARK  192  A    between atoms: _482  and  _484
REMARK  193  A    between atoms: _484  and  _485
REMARK  194  A    between atoms: _484  and  _487
REMARK  195  A    between atoms: _487  and  _488
REMARK  196  A    between atoms: _488  and  _489
REMARK  197  A    between atoms: _489  and  _490
REMARK  198  A    between atoms: _499  and  _501
REMARK  199  A    between atoms: _501  and  _502
REMARK  200  A    between atoms: _501  and  _504
REMARK  201  A    between atoms: _504  and  _505
REMARK  202  A    between atoms: _510  and  _511
REMARK  203  A    between atoms: _513  and  _515
REMARK  204  A    between atoms: _515  and  _516
REMARK  205  A    between atoms: _515  and  _518
REMARK  206  A    between atoms: _518  and  _519
REMARK  207  A    between atoms: _519  and  _520
REMARK  208  A    between atoms: _520  and  _521
REMARK  209  A    between atoms: _521  and  _522
REMARK  210  A    between atoms: _526  and  _528
REMARK  211  A    between atoms: _528  and  _529
REMARK  212  A    between atoms: _528  and  _531
REMARK  213  A    between atoms: _531  and  _532
REMARK  214  A    between atoms: _534  and  _536
REMARK  215  A    between atoms: _536  and  _537
REMARK  216  A    between atoms: _536  and  _539
REMARK  217  A    between atoms: _539  and  _540
REMARK  218  A    between atoms: _543  and  _545
REMARK  219  A    between atoms: _545  and  _546
REMARK  220  A    between atoms: _545  and  _548
REMARK  221  A    between atoms: _548  and  _549
REMARK  222  A    between atoms: _549  and  _550
REMARK  223  A    between atoms: _553  and  _555
REMARK  224  A    between atoms: _555  and  _556
REMARK  225  A    between atoms: _559  and  _561
REMARK  226  A    between atoms: _561  and  _562
REMARK  227  A    between atoms: _561  and  _564
REMARK  228  A    between atoms: _564  and  _565
REMARK  229  A    between atoms: _567  and  _569
REMARK  230  A    between atoms: _569  and  _570
REMARK  231  A    between atoms: _572  and  _574
REMARK  232  A    between atoms: _574  and  _575
REMARK  233  A    between atoms: _574  and  _577
REMARK  234  A    between atoms: _577  and  _578
REMARK  235  A    between atoms: _581  and  _583
REMARK  236  A    between atoms: _583  and  _584
REMARK  237  A    between atoms: _586  and  _588
REMARK  238  A    between atoms: _588  and  _589
REMARK  239  A    between atoms: _588  and  _591
REMARK  240  A    between atoms: _591  and  _592
REMARK  241  A    between atoms: _597  and  _599
REMARK  242  A    between atoms: _599  and  _600
REMARK  243  A    between atoms: _599  and  _602
REMARK  244  A    between atoms: _602  and  _603
REMARK  245  A    between atoms: _603  and  _604
REMARK  246  A    between atoms: _611  and  _612
REMARK  247  A    between atoms: _612  and  _628
REMARK  248  A    between atoms: _613  and  _615
REMARK  249  A    between atoms: _615  and  _616
REMARK  250  A    between atoms: _616  and  _617
REMARK  251  A    between atoms: _621  and  _623
REMARK  252  A    between atoms: _623  and  _624
REMARK  253  A    between atoms: _623  and  _631
REMARK  254  A    between atoms: _624  and  _625
REMARK  255  A    between atoms: _625  and  _626
REMARK  256  A    between atoms: _626  and  _627
REMARK  257  A    between atoms: _627  and  _628
REMARK  258  A    between atoms: _633  and  _635
REMARK  259  A    between atoms: _635  and  _636
REMARK  260  A    between atoms: _635  and  _638
REMARK  261  A    between atoms: _638  and  _639
REMARK  262  A    between atoms: _642  and  _644
REMARK  263  A    between atoms: _644  and  _645
REMARK  264  A    between atoms: _647  and  _649
REMARK  265  A    between atoms: _649  and  _650
REMARK  266  A    between atoms: _653  and  _655
REMARK  267  A    between atoms: _655  and  _656
REMARK  268  A    between atoms: _655  and  _658
REMARK  269  A    between atoms: _658  and  _659
REMARK  270  A    between atoms: _664  and  _665
REMARK                            x       y       z     vdW  Elec       q    Type
REMARK                         _______ _______ _______ _____ _____    ______ ____
ROOT
ATOM      1  O   HOH     1      35.259  12.819  31.168  0.00  0.00    +0.000 OA
ENDROOT
TORSDOF 0
REMARK  Name = ../refined-set-2016/4el0/4el0_pocket.pdb
REMARK  270 active torsions:
REMARK  status: ('A' for Active; 'I' for Inactive)
REMARK    1  A    between atoms: _1  and  _3
REMARK    2  A    between atoms: _3  and  _4
REMARK    3  A    between atoms: _3  and  _6
REMARK    4  A    between atoms: _6  and  _7
REMARK    5  A    between atoms: _12  and  _13
REMARK    6  A    between atoms: _15  and  _17
REMARK    7  A    between atoms: _17  and  _18
REMARK    8  A    between atoms: _17  and  _20
REMARK    9  A    between atoms: _20  and  _21
REMARK   10  A    between atoms: _21  and  _22
REMARK   11  A    between atoms: _25  and  _27
REMARK   12  A    between atoms: _27  and  _28
REMARK   13  A    between atoms: _27  and  _30
REMARK   14  A    between atoms: _30  and  _31
REMARK   15  A    between atoms: _36  and  _38
REMARK   16  A    between atoms: _38  and  _39
REMARK   17  A    between atoms: _41  and  _43
REMARK   18  A    between atoms: _43  and  _44
REMARK   19  A    between atoms: _46  and  _48
REMARK   20  A    between atoms: _48  and  _49
REMARK   21  A    between atoms: _48  and  _51
REMARK   22  A    between atoms: _51  and  _52
REMARK   23  A    between atoms: _55  and  _57
REMARK   24  A    between atoms: _57  and  _58
REMARK   25  A    between atoms: _60  and  _62
REMARK   26  A    between atoms: _62  and  _63
REMARK   27  A    between atoms: _62  and  _65
REMARK   28  A    between atoms: _66  and  _67
REMARK   29  A    between atoms: _67  and  _68
REMARK   30  A    between atoms: _77  and  _79
REMARK   31  A    between atoms: _79  and  _80
REMARK   32  A    between atoms: _79  and  _82
REMARK   33  A    between atoms: _82  and  _83
REMARK   34  A    between atoms: _86  and  _88
REMARK   35  A    between atoms: _88  and  _89
REMARK   36  A    between atoms: _92  and  _94
REMARK   37  A    between atoms: _94  and  _95
REMARK   38  A    between atoms: _94  and  _97
REMARK   39  A    between atoms: _97  and  _98
REMARK   40  A    between atoms: _104  and  _106
REMARK   41  A    between atoms: _106  and  _107
REMARK   42  A    between atoms: _106  and  _109
REMARK   43  A    between atoms: _109  and  _110
REMARK   44  A    between atoms: _115  and  _117
REMARK   45  A    between atoms: _117  and  _118
REMARK   46  A    between atoms: _117  and  _120
REMARK   47  A    between atoms: _120  and  _121
REMARK   48  A    between atoms: _124  and  _126
REMARK   49  A    between atoms: _126  and  _127
REMARK   50  A    between atoms: _126  and  _129
REMARK   51  A    between atoms: _129  and  _130
REMARK   52  A    between atoms: _135  and  _137
REMARK   53  A    between atoms: _137  and  _138
REMARK   54  A    between atoms: _137  and  _140
REMARK   55  A    between atoms: _140  and  _141
REMARK   56  A    between atoms: _147  and  _149
REMARK   57  A    between atoms: _149  and  _150
REMARK   58  A    between atoms: _149  and  _152
REMARK   59  A    between atoms: _152  and  _153
REMARK   60  A    between atoms: _159  and  _161
REMARK   61  A    between atoms: _161  and  _162
REMARK   62  A    between atoms: _161  and  _164
REMARK   63  A    between atoms: _164  and  _165
REMARK   64  A    between atoms: _165  and  _166
REMARK   65  A    between atoms: _169  and  _171
REMARK   66  A    between atoms: _171  and  _172
REMARK   67  A    between atoms: _171  and  _174
REMARK   68  A    between atoms: _174  and  _175
REMARK   69  A    between atoms: _175  and  _176
REMARK   70  A    between atoms: _176  and  _177
REMARK   71  A    between atoms: _186  and  _188
REMARK   72  A    between atoms: _188  and  _189
REMARK   73  A    between atoms: _188  and  _191
REMARK   74  A    between atoms: _191  and  _192
REMARK   75  A    between atoms: _192  and  _193
REMARK   76  A    between atoms: _196  and  _198
REMARK   77  A    between atoms: _198  and  _199
REMARK   78  A    between atoms: _198  and  _201
REMARK   79  A    between atoms: _201  and  _202
REMARK   80  A    between atoms: _207  and  _209
REMARK   81  A    between atoms: _209  and  _210
REMARK   82  A    between atoms: _209  and  _212
REMARK   83  A    between atoms: _212  and  _213
REMARK   84  A    between atoms: _216  and  _218
REMARK   85  A    between atoms: _218  and  _219
REMARK   86  A    between atoms: _218  and  _221
REMARK   87  A    between atoms: _221  and  _222
REMARK   88  A    between atoms: _225  and  _227
REMARK   89  A    between atoms: _227  and  _228
REMARK   90  A    between atoms: _227  and  _230
REMARK   91  A    between atoms: _230  and  _231
REMARK   92  A    between atoms: _236  and  _238
REMARK   93  A    between atoms: _238  and  _239
REMARK   94  A    between atoms: _238  and  _241
REMARK   95  A    between atoms: _241  and  _242
REMARK   96  A    between atoms: _247  and  _248
REMARK   97  A    between atoms: _250  and  _252
REMARK   98  A    between atoms: _252  and  _253
REMARK   99  A    between atoms: _252  and  _255
REMARK  100  A    between atoms: _255  and  _256
REMARK  101  A    between atoms: _259  and  _261
REMARK  102  A    between atoms: _261  and  _262
REMARK  103  A    between atoms: _261  and  _264
REMARK  104  A    between atoms: _264  and  _265
REMARK  105  A    between atoms: _270  and  _272
REMARK  106  A    between atoms: _272  and  _273
REMARK  107  A    between atoms: _272  and  _275
REMARK  108  A    between atoms: _275  and  _276
REMARK  109  A    between atoms: _281  and  _283
REMARK  110  A    between atoms: _283  and  _284
REMARK  111  A    between atoms: _283  and  _286
REMARK  112  A    between atoms: _286  and  _287
REMARK  113  A    between atoms: _290  and  _292
REMARK  114  A    between atoms: _292  and  _293
REMARK  115  A    between atoms: _292  and  _295
REMARK  116  A    between atoms: _298  and  _300
REMARK  117  A    between atoms: _300  and  _301
REMARK  118  A    between atoms: _300  and  _303
REMARK  119  A    between atoms: _303  and  _304
REMARK  120  A    between atoms: _307  and  _309
REMARK  121  A    between atoms: _309  and  _310
REMARK  122  A    between atoms: _309  and  _312
REMARK  123  A    between atoms: _312  and  _313
REMARK  124  A    between atoms: _313  and  _314
REMARK  125  A    between atoms: _317  and  _319
REMARK  126  A    between atoms: _319  and  _320
REMARK  127  A    between atoms: _323  and  _325
REMARK  128  A    between atoms: _325  and  _326
REMARK  129  A    between atoms: _325  and  _328
REMARK  130  A    between atoms: _328  and  _329
REMARK  131  A    between atoms: _332  and  _334
REMARK  132  A    between atoms: _334  and  _335
REMARK  133  A    between atoms: _334  and  _337
REMARK  134  A    between atoms: _337  and  _338
REMARK  135  A    between atoms: _338  and  _339
REMARK  136  A    between atoms: _342  and  _344
REMARK  137  A    between atoms: _344  and  _345
REMARK  138  A    between atoms: _344  and  _347
REMARK  139  A    between atoms: _347  and  _348
REMARK  140  A    between atoms: _348  and  _349
REMARK  141  A    between atoms: _349  and  _350
REMARK  142  A    between atoms: _359  and  _361
REMARK  143  A    between atoms: _361  and  _362
REMARK  144  A    between atoms: _361  and  _364
REMARK  145  A    between atoms: _364  and  _365
REMARK  146  A    between atoms: _375  and  _377
REMARK  147  A    between atoms: _377  and  _378
REMARK  148  A    between atoms: _377  and  _380
REMARK  149  A    between atoms: _380  and  _381
REMARK  150  A    between atoms: _381  and  _382
REMARK  151  A    between atoms: _384  and  _386
REMARK  152  A    between atoms: _386  and  _387
REMARK  153  A    between atoms: _390  and  _392
REMARK  154  A    between atoms: _392  and  _393
REMARK  155  A    between atoms: _392  and  _395
REMARK  156  A    between atoms: _395  and  _396
REMARK  157  A    between atoms: _401  and  _403
REMARK  158  A    between atoms: _403  and  _404
REMARK  159  A    between atoms: _406  and  _408
REMARK  160  A    between atoms: _408  and  _409
REMARK  161  A    between atoms: _408  and  _411
REMARK  162  A    between atoms: _414  and  _416
REMARK  163  A    between atoms: _416  and  _417
REMARK  164  A    between atoms: _420  and  _422
REMARK  165  A    between atoms: _422  and  _423
REMARK  166  A    between atoms: _422  and  _425
REMARK  167  A    between atoms: _425  and  _426
REMARK  168  A    between atoms: _431  and  _433
REMARK  169  A    between atoms: _433  and  _434
REMARK  170  A    between atoms: _433  and  _436
REMARK  171  A    between atoms: _436  and  _437
REMARK  172  A    between atoms: _437  and  _438
REMARK  173  A    between atoms: _438  and  _439
REMARK  174  A    between atoms: _439  and  _440
REMARK  175  A    between atoms: _444  and  _446
REMARK  176  A    between atoms: _446  and  _447
REMARK  177  A    between atoms: _446  and  _449
REMARK  178  A    between atoms: _449  and  _450
REMARK  179  A    between atoms: _453  and  _455
REMARK  180  A    between atoms: _455  and  _456
REMARK  181  A    between atoms: _455  and  _458
REMARK  182  A    between atoms: _458  and  _459
REMARK  183  A    between atoms: _464  and  _466
REMARK  184  A    between atoms: _466  and  _467
REMARK  185  A    between atoms: _469  and  _471
REMARK  186  A    between atoms: _471  and  _472
REMARK  187  A    between atoms: _471  and  _474
REMARK  188  A    between atoms: _474  and  _475
REMARK  189  A    between atoms: _475  and  _476
REMARK  190  A    between atoms: _476  and  _477
REMARK  191  A    between atoms: _477  and  _478
REMARK  192  A    between atoms: _482  and  _484
REMARK  193  A    between atoms: _484  and  _485
REMARK  194  A    between atoms: _484  and  _487
REMARK  195  A    between atoms: _487  and  _488
REMARK  196  A    between atoms: _488  and  _489
REMARK  197  A    between atoms: _489  and  _490
REMARK  198  A    between atoms: _499  and  _501
REMARK  199  A    between atoms: _501  and  _502
REMARK  200  A    between atoms: _501  and  _504
REMARK  201  A    between atoms: _504  and  _505
REMARK  202  A    between atoms: _510  and  _511
REMARK  203  A    between atoms: _513  and  _515
REMARK  204  A    between atoms: _515  and  _516
REMARK  205  A    between atoms: _515  and  _518
REMARK  206  A    between atoms: _518  and  _519
REMARK  207  A    between atoms: _519  and  _520
REMARK  208  A    between atoms: _520  and  _521
REMARK  209  A    between atoms: _521  and  _522
REMARK  210  A    between atoms: _526  and  _528
REMARK  211  A    between atoms: _528  and  _529
REMARK  212  A    between atoms: _528  and  _531
REMARK  213  A    between atoms: _531  and  _532
REMARK  214  A    between atoms: _534  and  _536
REMARK  215  A    between atoms: _536  and  _537
REMARK  216  A    between atoms: _536  and  _539
REMARK  217  A    between atoms: _539  and  _540
REMARK  218  A    between atoms: _543  and  _545
REMARK  219  A    between atoms: _545  and  _546
REMARK  220  A    between atoms: _545  and  _548
REMARK  221  A    between atoms: _548  and  _549
REMARK  222  A    between atoms: _549  and  _550
REMARK  223  A    between atoms: _553  and  _555
REMARK  224  A    between atoms: _555  and  _556
REMARK  225  A    between atoms: _559  and  _561
REMARK  226  A    between atoms: _561  and  _562
REMARK  227  A    between atoms: _561  and  _564
REMARK  228  A    between atoms: _564  and  _565
REMARK  229  A    between atoms: _567  and  _569
REMARK  230  A    between atoms: _569  and  _570
REMARK  231  A    between atoms: _572  and  _574
REMARK  232  A    between atoms: _574  and  _575
REMARK  233  A    between atoms: _574  and  _577
REMARK  234  A    between atoms: _577  and  _578
REMARK  235  A    between atoms: _581  and  _583
REMARK  236  A    between atoms: _583  and  _584
REMARK  237  A    between atoms: _586  and  _588
REMARK  238  A    between atoms: _588  and  _589
REMARK  239  A    between atoms: _588  and  _591
REMARK  240  A    between atoms: _591  and  _592
REMARK  241  A    between atoms: _597  and  _599
REMARK  242  A    between atoms: _599  and  _600
REMARK  243  A    between atoms: _599  and  _602
REMARK  244  A    between atoms: _602  and  _603
REMARK  245  A    between atoms: _603  and  _604
REMARK  246  A    between atoms: _611  and  _612
REMARK  247  A    between atoms: _612  and  _628
REMARK  248  A    between atoms: _613  and  _615
REMARK  249  A    between atoms: _615  and  _616
REMARK  250  A    between atoms: _616  and  _617
REMARK  251  A    between atoms: _621  and  _623
REMARK  252  A    between atoms: _623  and  _624
REMARK  253  A    between atoms: _623  and  _631
REMARK  254  A    between atoms: _624  and  _625
REMARK  255  A    between atoms: _625  and  _626
REMARK  256  A    between atoms: _626  and  _627
REMARK  257  A    between atoms: _627  and  _628
REMARK  258  A    between atoms: _633  and  _635
REMARK  259  A    between atoms: _635  and  _636
REMARK  260  A    between atoms: _635  and  _638
REMARK  261  A    between atoms: _638  and  _639
REMARK  262  A    between atoms: _642  and  _644
REMARK  263  A    between atoms: _644  and  _645
REMARK  264  A    between atoms: _647  and  _649
REMARK  265  A    between atoms: _649  and  _650
REMARK  266  A    between atoms: _653  and  _655
REMARK  267  A    between atoms: _655  and  _656
REMARK  268  A    between atoms: _655  and  _658
REMARK  269  A    between atoms: _658  and  _659
REMARK  270  A    between atoms: _664  and  _665
REMARK                            x       y       z     vdW  Elec       q    Type
REMARK                         _______ _______ _______ _____ _____    ______ ____
ROOT
ATOM      1  O   HOH     1      36.618  19.499  37.174  0.00  0.00    +0.000 OA
ENDROOT
TORSDOF 0
REMARK  Name = ../refined-set-2016/4el0/4el0_pocket.pdb
REMARK  270 active torsions:
REMARK  status: ('A' for Active; 'I' for Inactive)
REMARK    1  A    between atoms: _1  and  _3
REMARK    2  A    between atoms: _3  and  _4
REMARK    3  A    between atoms: _3  and  _6
REMARK    4  A    between atoms: _6  and  _7
REMARK    5  A    between atoms: _12  and  _13
REMARK    6  A    between atoms: _15  and  _17
REMARK    7  A    between atoms: _17  and  _18
REMARK    8  A    between atoms: _17  and  _20
REMARK    9  A    between atoms: _20  and  _21
REMARK   10  A    between atoms: _21  and  _22
REMARK   11  A    between atoms: _25  and  _27
REMARK   12  A    between atoms: _27  and  _28
REMARK   13  A    between atoms: _27  and  _30
REMARK   14  A    between atoms: _30  and  _31
REMARK   15  A    between atoms: _36  and  _38
REMARK   16  A    between atoms: _38  and  _39
REMARK   17  A    between atoms: _41  and  _43
REMARK   18  A    between atoms: _43  and  _44
REMARK   19  A    between atoms: _46  and  _48
REMARK   20  A    between atoms: _48  and  _49
REMARK   21  A    between atoms: _48  and  _51
REMARK   22  A    between atoms: _51  and  _52
REMARK   23  A    between atoms: _55  and  _57
REMARK   24  A    between atoms: _57  and  _58
REMARK   25  A    between atoms: _60  and  _62
REMARK   26  A    between atoms: _62  and  _63
REMARK   27  A    between atoms: _62  and  _65
REMARK   28  A    between atoms: _66  and  _67
REMARK   29  A    between atoms: _67  and  _68
REMARK   30  A    between atoms: _77  and  _79
REMARK   31  A    between atoms: _79  and  _80
REMARK   32  A    between atoms: _79  and  _82
REMARK   33  A    between atoms: _82  and  _83
REMARK   34  A    between atoms: _86  and  _88
REMARK   35  A    between atoms: _88  and  _89
REMARK   36  A    between atoms: _92  and  _94
REMARK   37  A    between atoms: _94  and  _95
REMARK   38  A    between atoms: _94  and  _97
REMARK   39  A    between atoms: _97  and  _98
REMARK   40  A    between atoms: _104  and  _106
REMARK   41  A    between atoms: _106  and  _107
REMARK   42  A    between atoms: _106  and  _109
REMARK   43  A    between atoms: _109  and  _110
REMARK   44  A    between atoms: _115  and  _117
REMARK   45  A    between atoms: _117  and  _118
REMARK   46  A    between atoms: _117  and  _120
REMARK   47  A    between atoms: _120  and  _121
REMARK   48  A    between atoms: _124  and  _126
REMARK   49  A    between atoms: _126  and  _127
REMARK   50  A    between atoms: _126  and  _129
REMARK   51  A    between atoms: _129  and  _130
REMARK   52  A    between atoms: _135  and  _137
REMARK   53  A    between atoms: _137  and  _138
REMARK   54  A    between atoms: _137  and  _140
REMARK   55  A    between atoms: _140  and  _141
REMARK   56  A    between atoms: _147  and  _149
REMARK   57  A    between atoms: _149  and  _150
REMARK   58  A    between atoms: _149  and  _152
REMARK   59  A    between atoms: _152  and  _153
REMARK   60  A    between atoms: _159  and  _161
REMARK   61  A    between atoms: _161  and  _162
REMARK   62  A    between atoms: _161  and  _164
REMARK   63  A    between atoms: _164  and  _165
REMARK   64  A    between atoms: _165  and  _166
REMARK   65  A    between atoms: _169  and  _171
REMARK   66  A    between atoms: _171  and  _172
REMARK   67  A    between atoms: _171  and  _174
REMARK   68  A    between atoms: _174  and  _175
REMARK   69  A    between atoms: _175  and  _176
REMARK   70  A    between atoms: _176  and  _177
REMARK   71  A    between atoms: _186  and  _188
REMARK   72  A    between atoms: _188  and  _189
REMARK   73  A    between atoms: _188  and  _191
REMARK   74  A    between atoms: _191  and  _192
REMARK   75  A    between atoms: _192  and  _193
REMARK   76  A    between atoms: _196  and  _198
REMARK   77  A    between atoms: _198  and  _199
REMARK   78  A    between atoms: _198  and  _201
REMARK   79  A    between atoms: _201  and  _202
REMARK   80  A    between atoms: _207  and  _209
REMARK   81  A    between atoms: _209  and  _210
REMARK   82  A    between atoms: _209  and  _212
REMARK   83  A    between atoms: _212  and  _213
REMARK   84  A    between atoms: _216  and  _218
REMARK   85  A    between atoms: _218  and  _219
REMARK   86  A    between atoms: _218  and  _221
REMARK   87  A    between atoms: _221  and  _222
REMARK   88  A    between atoms: _225  and  _227
REMARK   89  A    between atoms: _227  and  _228
REMARK   90  A    between atoms: _227  and  _230
REMARK   91  A    between atoms: _230  and  _231
REMARK   92  A    between atoms: _236  and  _238
REMARK   93  A    between atoms: _238  and  _239
REMARK   94  A    between atoms: _238  and  _241
REMARK   95  A    between atoms: _241  and  _242
REMARK   96  A    between atoms: _247  and  _248
REMARK   97  A    between atoms: _250  and  _252
REMARK   98  A    between atoms: _252  and  _253
REMARK   99  A    between atoms: _252  and  _255
REMARK  100  A    between atoms: _255  and  _256
REMARK  101  A    between atoms: _259  and  _261
REMARK  102  A    between atoms: _261  and  _262
REMARK  103  A    between atoms: _261  and  _264
REMARK  104  A    between atoms: _264  and  _265
REMARK  105  A    between atoms: _270  and  _272
REMARK  106  A    between atoms: _272  and  _273
REMARK  107  A    between atoms: _272  and  _275
REMARK  108  A    between atoms: _275  and  _276
REMARK  109  A    between atoms: _281  and  _283
REMARK  110  A    between atoms: _283  and  _284
REMARK  111  A    between atoms: _283  and  _286
REMARK  112  A    between atoms: _286  and  _287
REMARK  113  A    between atoms: _290  and  _292
REMARK  114  A    between atoms: _292  and  _293
REMARK  115  A    between atoms: _292  and  _295
REMARK  116  A    between atoms: _298  and  _300
REMARK  117  A    between atoms: _300  and  _301
REMARK  118  A    between atoms: _300  and  _303
REMARK  119  A    between atoms: _303  and  _304
REMARK  120  A    between atoms: _307  and  _309
REMARK  121  A    between atoms: _309  and  _310
REMARK  122  A    between atoms: _309  and  _312
REMARK  123  A    between atoms: _312  and  _313
REMARK  124  A    between atoms: _313  and  _314
REMARK  125  A    between atoms: _317  and  _319
REMARK  126  A    between atoms: _319  and  _320
REMARK  127  A    between atoms: _323  and  _325
REMARK  128  A    between atoms: _325  and  _326
REMARK  129  A    between atoms: _325  and  _328
REMARK  130  A    between atoms: _328  and  _329
REMARK  131  A    between atoms: _332  and  _334
REMARK  132  A    between atoms: _334  and  _335
REMARK  133  A    between atoms: _334  and  _337
REMARK  134  A    between atoms: _337  and  _338
REMARK  135  A    between atoms: _338  and  _339
REMARK  136  A    between atoms: _342  and  _344
REMARK  137  A    between atoms: _344  and  _345
REMARK  138  A    between atoms: _344  and  _347
REMARK  139  A    between atoms: _347  and  _348
REMARK  140  A    between atoms: _348  and  _349
REMARK  141  A    between atoms: _349  and  _350
REMARK  142  A    between atoms: _359  and  _361
REMARK  143  A    between atoms: _361  and  _362
REMARK  144  A    between atoms: _361  and  _364
REMARK  145  A    between atoms: _364  and  _365
REMARK  146  A    between atoms: _375  and  _377
REMARK  147  A    between atoms: _377  and  _378
REMARK  148  A    between atoms: _377  and  _380
REMARK  149  A    between atoms: _380  and  _381
REMARK  150  A    between atoms: _381  and  _382
REMARK  151  A    between atoms: _384  and  _386
REMARK  152  A    between atoms: _386  and  _387
REMARK  153  A    between atoms: _390  and  _392
REMARK  154  A    between atoms: _392  and  _393
REMARK  155  A    between atoms: _392  and  _395
REMARK  156  A    between atoms: _395  and  _396
REMARK  157  A    between atoms: _401  and  _403
REMARK  158  A    between atoms: _403  and  _404
REMARK  159  A    between atoms: _406  and  _408
REMARK  160  A    between atoms: _408  and  _409
REMARK  161  A    between atoms: _408  and  _411
REMARK  162  A    between atoms: _414  and  _416
REMARK  163  A    between atoms: _416  and  _417
REMARK  164  A    between atoms: _420  and  _422
REMARK  165  A    between atoms: _422  and  _423
REMARK  166  A    between atoms: _422  and  _425
REMARK  167  A    between atoms: _425  and  _426
REMARK  168  A    between atoms: _431  and  _433
REMARK  169  A    between atoms: _433  and  _434
REMARK  170  A    between atoms: _433  and  _436
REMARK  171  A    between atoms: _436  and  _437
REMARK  172  A    between atoms: _437  and  _438
REMARK  173  A    between atoms: _438  and  _439
REMARK  174  A    between atoms: _439  and  _440
REMARK  175  A    between atoms: _444  and  _446
REMARK  176  A    between atoms: _446  and  _447
REMARK  177  A    between atoms: _446  and  _449
REMARK  178  A    between atoms: _449  and  _450
REMARK  179  A    between atoms: _453  and  _455
REMARK  180  A    between atoms: _455  and  _456
REMARK  181  A    between atoms: _455  and  _458
REMARK  182  A    between atoms: _458  and  _459
REMARK  183  A    between atoms: _464  and  _466
REMARK  184  A    between atoms: _466  and  _467
REMARK  185  A    between atoms: _469  and  _471
REMARK  186  A    between atoms: _471  and  _472
REMARK  187  A    between atoms: _471  and  _474
REMARK  188  A    between atoms: _474  and  _475
REMARK  189  A    between atoms: _475  and  _476
REMARK  190  A    between atoms: _476  and  _477
REMARK  191  A    between atoms: _477  and  _478
REMARK  192  A    between atoms: _482  and  _484
REMARK  193  A    between atoms: _484  and  _485
REMARK  194  A    between atoms: _484  and  _487
REMARK  195  A    between atoms: _487  and  _488
REMARK  196  A    between atoms: _488  and  _489
REMARK  197  A    between atoms: _489  and  _490
REMARK  198  A    between atoms: _499  and  _501
REMARK  199  A    between atoms: _501  and  _502
REMARK  200  A    between atoms: _501  and  _504
REMARK  201  A    between atoms: _504  and  _505
REMARK  202  A    between atoms: _510  and  _511
REMARK  203  A    between atoms: _513  and  _515
REMARK  204  A    between atoms: _515  and  _516
REMARK  205  A    between atoms: _515  and  _518
REMARK  206  A    between atoms: _518  and  _519
REMARK  207  A    between atoms: _519  and  _520
REMARK  208  A    between atoms: _520  and  _521
REMARK  209  A    between atoms: _521  and  _522
REMARK  210  A    between atoms: _526  and  _528
REMARK  211  A    between atoms: _528  and  _529
REMARK  212  A    between atoms: _528  and  _531
REMARK  213  A    between atoms: _531  and  _532
REMARK  214  A    between atoms: _534  and  _536
REMARK  215  A    between atoms: _536  and  _537
REMARK  216  A    between atoms: _536  and  _539
REMARK  217  A    between atoms: _539  and  _540
REMARK  218  A    between atoms: _543  and  _545
REMARK  219  A    between atoms: _545  and  _546
REMARK  220  A    between atoms: _545  and  _548
REMARK  221  A    between atoms: _548  and  _549
REMARK  222  A    between atoms: _549  and  _550
REMARK  223  A    between atoms: _553  and  _555
REMARK  224  A    between atoms: _555  and  _556
REMARK  225  A    between atoms: _559  and  _561
REMARK  226  A    between atoms: _561  and  _562
REMARK  227  A    between atoms: _561  and  _564
REMARK  228  A    between atoms: _564  and  _565
REMARK  229  A    between atoms: _567  and  _569
REMARK  230  A    between atoms: _569  and  _570
REMARK  231  A    between atoms: _572  and  _574
REMARK  232  A    between atoms: _574  and  _575
REMARK  233  A    between atoms: _574  and  _577
REMARK  234  A    between atoms: _577  and  _578
REMARK  235  A    between atoms: _581  and  _583
REMARK  236  A    between atoms: _583  and  _584
REMARK  237  A    between atoms: _586  and  _588
REMARK  238  A    between atoms: _588  and  _589
REMARK  239  A    between atoms: _588  and  _591
REMARK  240  A    between atoms: _591  and  _592
REMARK  241  A    between atoms: _597  and  _599
REMARK  242  A    between atoms: _599  and  _600
REMARK  243  A    between atoms: _599  and  _602
REMARK  244  A    between atoms: _602  and  _603
REMARK  245  A    between atoms: _603  and  _604
REMARK  246  A    between atoms: _611  and  _612
REMARK  247  A    between atoms: _612  and  _628
REMARK  248  A    between atoms: _613  and  _615
REMARK  249  A    between atoms: _615  and  _616
REMARK  250  A    between atoms: _616  and  _617
REMARK  251  A    between atoms: _621  and  _623
REMARK  252  A    between atoms: _623  and  _624
REMARK  253  A    between atoms: _623  and  _631
REMARK  254  A    between atoms: _624  and  _625
REMARK  255  A    between atoms: _625  and  _626
REMARK  256  A    between atoms: _626  and  _627
REMARK  257  A    between atoms: _627  and  _628
REMARK  258  A    between atoms: _633  and  _635
REMARK  259  A    between atoms: _635  and  _636
REMARK  260  A    between atoms: _635  and  _638
REMARK  261  A    between atoms: _638  and  _639
REMARK  262  A    between atoms: _642  and  _644
REMARK  263  A    between atoms: _644  and  _645
REMARK  264  A    between atoms: _647  and  _649
REMARK  265  A    between atoms: _649  and  _650
REMARK  266  A    between atoms: _653  and  _655
REMARK  267  A    between atoms: _655  and  _656
REMARK  268  A    between atoms: _655  and  _658
REMARK  269  A    between atoms: _658  and  _659
REMARK  270  A    between atoms: _664  and  _665
REMARK                            x       y       z     vdW  Elec       q    Type
REMARK                         _______ _______ _______ _____ _____    ______ ____
ROOT
ATOM      1  O   HOH     1      31.112  23.964  33.458  0.00  0.00    +0.000 OA
ENDROOT
TORSDOF 0
REMARK  Name = ../refined-set-2016/4el0/4el0_pocket.pdb
REMARK  270 active torsions:
REMARK  status: ('A' for Active; 'I' for Inactive)
REMARK    1  A    between atoms: _1  and  _3
REMARK    2  A    between atoms: _3  and  _4
REMARK    3  A    between atoms: _3  and  _6
REMARK    4  A    between atoms: _6  and  _7
REMARK    5  A    between atoms: _12  and  _13
REMARK    6  A    between atoms: _15  and  _17
REMARK    7  A    between atoms: _17  and  _18
REMARK    8  A    between atoms: _17  and  _20
REMARK    9  A    between atoms: _20  and  _21
REMARK   10  A    between atoms: _21  and  _22
REMARK   11  A    between atoms: _25  and  _27
REMARK   12  A    between atoms: _27  and  _28
REMARK   13  A    between atoms: _27  and  _30
REMARK   14  A    between atoms: _30  and  _31
REMARK   15  A    between atoms: _36  and  _38
REMARK   16  A    between atoms: _38  and  _39
REMARK   17  A    between atoms: _41  and  _43
REMARK   18  A    between atoms: _43  and  _44
REMARK   19  A    between atoms: _46  and  _48
REMARK   20  A    between atoms: _48  and  _49
REMARK   21  A    between atoms: _48  and  _51
REMARK   22  A    between atoms: _51  and  _52
REMARK   23  A    between atoms: _55  and  _57
REMARK   24  A    between atoms: _57  and  _58
REMARK   25  A    between atoms: _60  and  _62
REMARK   26  A    between atoms: _62  and  _63
REMARK   27  A    between atoms: _62  and  _65
REMARK   28  A    between atoms: _66  and  _67
REMARK   29  A    between atoms: _67  and  _68
REMARK   30  A    between atoms: _77  and  _79
REMARK   31  A    between atoms: _79  and  _80
REMARK   32  A    between atoms: _79  and  _82
REMARK   33  A    between atoms: _82  and  _83
REMARK   34  A    between atoms: _86  and  _88
REMARK   35  A    between atoms: _88  and  _89
REMARK   36  A    between atoms: _92  and  _94
REMARK   37  A    between atoms: _94  and  _95
REMARK   38  A    between atoms: _94  and  _97
REMARK   39  A    between atoms: _97  and  _98
REMARK   40  A    between atoms: _104  and  _106
REMARK   41  A    between atoms: _106  and  _107
REMARK   42  A    between atoms: _106  and  _109
REMARK   43  A    between atoms: _109  and  _110
REMARK   44  A    between atoms: _115  and  _117
REMARK   45  A    between atoms: _117  and  _118
REMARK   46  A    between atoms: _117  and  _120
REMARK   47  A    between atoms: _120  and  _121
REMARK   48  A    between atoms: _124  and  _126
REMARK   49  A    between atoms: _126  and  _127
REMARK   50  A    between atoms: _126  and  _129
REMARK   51  A    between atoms: _129  and  _130
REMARK   52  A    between atoms: _135  and  _137
REMARK   53  A    between atoms: _137  and  _138
REMARK   54  A    between atoms: _137  and  _140
REMARK   55  A    between atoms: _140  and  _141
REMARK   56  A    between atoms: _147  and  _149
REMARK   57  A    between atoms: _149  and  _150
REMARK   58  A    between atoms: _149  and  _152
REMARK   59  A    between atoms: _152  and  _153
REMARK   60  A    between atoms: _159  and  _161
REMARK   61  A    between atoms: _161  and  _162
REMARK   62  A    between atoms: _161  and  _164
REMARK   63  A    between atoms: _164  and  _165
REMARK   64  A    between atoms: _165  and  _166
REMARK   65  A    between atoms: _169  and  _171
REMARK   66  A    between atoms: _171  and  _172
REMARK   67  A    between atoms: _171  and  _174
REMARK   68  A    between atoms: _174  and  _175
REMARK   69  A    between atoms: _175  and  _176
REMARK   70  A    between atoms: _176  and  _177
REMARK   71  A    between atoms: _186  and  _188
REMARK   72  A    between atoms: _188  and  _189
REMARK   73  A    between atoms: _188  and  _191
REMARK   74  A    between atoms: _191  and  _192
REMARK   75  A    between atoms: _192  and  _193
REMARK   76  A    between atoms: _196  and  _198
REMARK   77  A    between atoms: _198  and  _199
REMARK   78  A    between atoms: _198  and  _201
REMARK   79  A    between atoms: _201  and  _202
REMARK   80  A    between atoms: _207  and  _209
REMARK   81  A    between atoms: _209  and  _210
REMARK   82  A    between atoms: _209  and  _212
REMARK   83  A    between atoms: _212  and  _213
REMARK   84  A    between atoms: _216  and  _218
REMARK   85  A    between atoms: _218  and  _219
REMARK   86  A    between atoms: _218  and  _221
REMARK   87  A    between atoms: _221  and  _222
REMARK   88  A    between atoms: _225  and  _227
REMARK   89  A    between atoms: _227  and  _228
REMARK   90  A    between atoms: _227  and  _230
REMARK   91  A    between atoms: _230  and  _231
REMARK   92  A    between atoms: _236  and  _238
REMARK   93  A    between atoms: _238  and  _239
REMARK   94  A    between atoms: _238  and  _241
REMARK   95  A    between atoms: _241  and  _242
REMARK   96  A    between atoms: _247  and  _248
REMARK   97  A    between atoms: _250  and  _252
REMARK   98  A    between atoms: _252  and  _253
REMARK   99  A    between atoms: _252  and  _255
REMARK  100  A    between atoms: _255  and  _256
REMARK  101  A    between atoms: _259  and  _261
REMARK  102  A    between atoms: _261  and  _262
REMARK  103  A    between atoms: _261  and  _264
REMARK  104  A    between atoms: _264  and  _265
REMARK  105  A    between atoms: _270  and  _272
REMARK  106  A    between atoms: _272  and  _273
REMARK  107  A    between atoms: _272  and  _275
REMARK  108  A    between atoms: _275  and  _276
REMARK  109  A    between atoms: _281  and  _283
REMARK  110  A    between atoms: _283  and  _284
REMARK  111  A    between atoms: _283  and  _286
REMARK  112  A    between atoms: _286  and  _287
REMARK  113  A    between atoms: _290  and  _292
REMARK  114  A    between atoms: _292  and  _293
REMARK  115  A    between atoms: _292  and  _295
REMARK  116  A    between atoms: _298  and  _300
REMARK  117  A    between atoms: _300  and  _301
REMARK  118  A    between atoms: _300  and  _303
REMARK  119  A    between atoms: _303  and  _304
REMARK  120  A    between atoms: _307  and  _309
REMARK  121  A    between atoms: _309  and  _310
REMARK  122  A    between atoms: _309  and  _312
REMARK  123  A    between atoms: _312  and  _313
REMARK  124  A    between atoms: _313  and  _314
REMARK  125  A    between atoms: _317  and  _319
REMARK  126  A    between atoms: _319  and  _320
REMARK  127  A    between atoms: _323  and  _325
REMARK  128  A    between atoms: _325  and  _326
REMARK  129  A    between atoms: _325  and  _328
REMARK  130  A    between atoms: _328  and  _329
REMARK  131  A    between atoms: _332  and  _334
REMARK  132  A    between atoms: _334  and  _335
REMARK  133  A    between atoms: _334  and  _337
REMARK  134  A    between atoms: _337  and  _338
REMARK  135  A    between atoms: _338  and  _339
REMARK  136  A    between atoms: _342  and  _344
REMARK  137  A    between atoms: _344  and  _345
REMARK  138  A    between atoms: _344  and  _347
REMARK  139  A    between atoms: _347  and  _348
REMARK  140  A    between atoms: _348  and  _349
REMARK  141  A    between atoms: _349  and  _350
REMARK  142  A    between atoms: _359  and  _361
REMARK  143  A    between atoms: _361  and  _362
REMARK  144  A    between atoms: _361  and  _364
REMARK  145  A    between atoms: _364  and  _365
REMARK  146  A    between atoms: _375  and  _377
REMARK  147  A    between atoms: _377  and  _378
REMARK  148  A    between atoms: _377  and  _380
REMARK  149  A    between atoms: _380  and  _381
REMARK  150  A    between atoms: _381  and  _382
REMARK  151  A    between atoms: _384  and  _386
REMARK  152  A    between atoms: _386  and  _387
REMARK  153  A    between atoms: _390  and  _392
REMARK  154  A    between atoms: _392  and  _393
REMARK  155  A    between atoms: _392  and  _395
REMARK  156  A    between atoms: _395  and  _396
REMARK  157  A    between atoms: _401  and  _403
REMARK  158  A    between atoms: _403  and  _404
REMARK  159  A    between atoms: _406  and  _408
REMARK  160  A    between atoms: _408  and  _409
REMARK  161  A    between atoms: _408  and  _411
REMARK  162  A    between atoms: _414  and  _416
REMARK  163  A    between atoms: _416  and  _417
REMARK  164  A    between atoms: _420  and  _422
REMARK  165  A    between atoms: _422  and  _423
REMARK  166  A    between atoms: _422  and  _425
REMARK  167  A    between atoms: _425  and  _426
REMARK  168  A    between atoms: _431  and  _433
REMARK  169  A    between atoms: _433  and  _434
REMARK  170  A    between atoms: _433  and  _436
REMARK  171  A    between atoms: _436  and  _437
REMARK  172  A    between atoms: _437  and  _438
REMARK  173  A    between atoms: _438  and  _439
REMARK  174  A    between atoms: _439  and  _440
REMARK  175  A    between atoms: _444  and  _446
REMARK  176  A    between atoms: _446  and  _447
REMARK  177  A    between atoms: _446  and  _449
REMARK  178  A    between atoms: _449  and  _450
REMARK  179  A    between atoms: _453  and  _455
REMARK  180  A    between atoms: _455  and  _456
REMARK  181  A    between atoms: _455  and  _458
REMARK  182  A    between atoms: _458  and  _459
REMARK  183  A    between atoms: _464  and  _466
REMARK  184  A    between atoms: _466  and  _467
REMARK  185  A    between atoms: _469  and  _471
REMARK  186  A    between atoms: _471  and  _472
REMARK  187  A    between atoms: _471  and  _474
REMARK  188  A    between atoms: _474  and  _475
REMARK  189  A    between atoms: _475  and  _476
REMARK  190  A    between atoms: _476  and  _477
REMARK  191  A    between atoms: _477  and  _478
REMARK  192  A    between atoms: _482  and  _484
REMARK  193  A    between atoms: _484  and  _485
REMARK  194  A    between atoms: _484  and  _487
REMARK  195  A    between atoms: _487  and  _488
REMARK  196  A    between atoms: _488  and  _489
REMARK  197  A    between atoms: _489  and  _490
REMARK  198  A    between atoms: _499  and  _501
REMARK  199  A    between atoms: _501  and  _502
REMARK  200  A    between atoms: _501  and  _504
REMARK  201  A    between atoms: _504  and  _505
REMARK  202  A    between atoms: _510  and  _511
REMARK  203  A    between atoms: _513  and  _515
REMARK  204  A    between atoms: _515  and  _516
REMARK  205  A    between atoms: _515  and  _518
REMARK  206  A    between atoms: _518  and  _519
REMARK  207  A    between atoms: _519  and  _520
REMARK  208  A    between atoms: _520  and  _521
REMARK  209  A    between atoms: _521  and  _522
REMARK  210  A    between atoms: _526  and  _528
REMARK  211  A    between atoms: _528  and  _529
REMARK  212  A    between atoms: _528  and  _531
REMARK  213  A    between atoms: _531  and  _532
REMARK  214  A    between atoms: _534  and  _536
REMARK  215  A    between atoms: _536  and  _537
REMARK  216  A    between atoms: _536  and  _539
REMARK  217  A    between atoms: _539  and  _540
REMARK  218  A    between atoms: _543  and  _545
REMARK  219  A    between atoms: _545  and  _546
REMARK  220  A    between atoms: _545  and  _548
REMARK  221  A    between atoms: _548  and  _549
REMARK  222  A    between atoms: _549  and  _550
REMARK  223  A    between atoms: _553  and  _555
REMARK  224  A    between atoms: _555  and  _556
REMARK  225  A    between atoms: _559  and  _561
REMARK  226  A    between atoms: _561  and  _562
REMARK  227  A    between atoms: _561  and  _564
REMARK  228  A    between atoms: _564  and  _565
REMARK  229  A    between atoms: _567  and  _569
REMARK  230  A    between atoms: _569  and  _570
REMARK  231  A    between atoms: _572  and  _574
REMARK  232  A    between atoms: _574  and  _575
REMARK  233  A    between atoms: _574  and  _577
REMARK  234  A    between atoms: _577  and  _578
REMARK  235  A    between atoms: _581  and  _583
REMARK  236  A    between atoms: _583  and  _584
REMARK  237  A    between atoms: _586  and  _588
REMARK  238  A    between atoms: _588  and  _589
REMARK  239  A    between atoms: _588  and  _591
REMARK  240  A    between atoms: _591  and  _592
REMARK  241  A    between atoms: _597  and  _599
REMARK  242  A    between atoms: _599  and  _600
REMARK  243  A    between atoms: _599  and  _602
REMARK  244  A    between atoms: _602  and  _603
REMARK  245  A    between atoms: _603  and  _604
REMARK  246  A    between atoms: _611  and  _612
REMARK  247  A    between atoms: _612  and  _628
REMARK  248  A    between atoms: _613  and  _615
REMARK  249  A    between atoms: _615  and  _616
REMARK  250  A    between atoms: _616  and  _617
REMARK  251  A    between atoms: _621  and  _623
REMARK  252  A    between atoms: _623  and  _624
REMARK  253  A    between atoms: _623  and  _631
REMARK  254  A    between atoms: _624  and  _625
REMARK  255  A    between atoms: _625  and  _626
REMARK  256  A    between atoms: _626  and  _627
REMARK  257  A    between atoms: _627  and  _628
REMARK  258  A    between atoms: _633  and  _635
REMARK  259  A    between atoms: _635  and  _636
REMARK  260  A    between atoms: _635  and  _638
REMARK  261  A    between atoms: _638  and  _639
REMARK  262  A    between atoms: _642  and  _644
REMARK  263  A    between atoms: _644  and  _645
REMARK  264  A    between atoms: _647  and  _649
REMARK  265  A    between atoms: _649  and  _650
REMARK  266  A    between atoms: _653  and  _655
REMARK  267  A    between atoms: _655  and  _656
REMARK  268  A    between atoms: _655  and  _658
REMARK  269  A    between atoms: _658  and  _659
REMARK  270  A    between atoms: _664  and  _665
REMARK                            x       y       z     vdW  Elec       q    Type
REMARK                         _______ _______ _______ _____ _____    ______ ____
ROOT
ATOM      1  O   HOH     1      38.796  24.026  22.359  0.00  0.00    +0.000 OA
ENDROOT
TORSDOF 0
REMARK  Name = ../refined-set-2016/4el0/4el0_pocket.pdb
REMARK  270 active torsions:
REMARK  status: ('A' for Active; 'I' for Inactive)
REMARK    1  A    between atoms: _1  and  _3
REMARK    2  A    between atoms: _3  and  _4
REMARK    3  A    between atoms: _3  and  _6
REMARK    4  A    between atoms: _6  and  _7
REMARK    5  A    between atoms: _12  and  _13
REMARK    6  A    between atoms: _15  and  _17
REMARK    7  A    between atoms: _17  and  _18
REMARK    8  A    between atoms: _17  and  _20
REMARK    9  A    between atoms: _20  and  _21
REMARK   10  A    between atoms: _21  and  _22
REMARK   11  A    between atoms: _25  and  _27
REMARK   12  A    between atoms: _27  and  _28
REMARK   13  A    between atoms: _27  and  _30
REMARK   14  A    between atoms: _30  and  _31
REMARK   15  A    between atoms: _36  and  _38
REMARK   16  A    between atoms: _38  and  _39
REMARK   17  A    between atoms: _41  and  _43
REMARK   18  A    between atoms: _43  and  _44
REMARK   19  A    between atoms: _46  and  _48
REMARK   20  A    between atoms: _48  and  _49
REMARK   21  A    between atoms: _48  and  _51
REMARK   22  A    between atoms: _51  and  _52
REMARK   23  A    between atoms: _55  and  _57
REMARK   24  A    between atoms: _57  and  _58
REMARK   25  A    between atoms: _60  and  _62
REMARK   26  A    between atoms: _62  and  _63
REMARK   27  A    between atoms: _62  and  _65
REMARK   28  A    between atoms: _66  and  _67
REMARK   29  A    between atoms: _67  and  _68
REMARK   30  A    between atoms: _77  and  _79
REMARK   31  A    between atoms: _79  and  _80
REMARK   32  A    between atoms: _79  and  _82
REMARK   33  A    between atoms: _82  and  _83
REMARK   34  A    between atoms: _86  and  _88
REMARK   35  A    between atoms: _88  and  _89
REMARK   36  A    between atoms: _92  and  _94
REMARK   37  A    between atoms: _94  and  _95
REMARK   38  A    between atoms: _94  and  _97
REMARK   39  A    between atoms: _97  and  _98
REMARK   40  A    between atoms: _104  and  _106
REMARK   41  A    between atoms: _106  and  _107
REMARK   42  A    between atoms: _106  and  _109
REMARK   43  A    between atoms: _109  and  _110
REMARK   44  A    between atoms: _115  and  _117
REMARK   45  A    between atoms: _117  and  _118
REMARK   46  A    between atoms: _117  and  _120
REMARK   47  A    between atoms: _120  and  _121
REMARK   48  A    between atoms: _124  and  _126
REMARK   49  A    between atoms: _126  and  _127
REMARK   50  A    between atoms: _126  and  _129
REMARK   51  A    between atoms: _129  and  _130
REMARK   52  A    between atoms: _135  and  _137
REMARK   53  A    between atoms: _137  and  _138
REMARK   54  A    between atoms: _137  and  _140
REMARK   55  A    between atoms: _140  and  _141
REMARK   56  A    between atoms: _147  and  _149
REMARK   57  A    between atoms: _149  and  _150
REMARK   58  A    between atoms: _149  and  _152
REMARK   59  A    between atoms: _152  and  _153
REMARK   60  A    between atoms: _159  and  _161
REMARK   61  A    between atoms: _161  and  _162
REMARK   62  A    between atoms: _161  and  _164
REMARK   63  A    between atoms: _164  and  _165
REMARK   64  A    between atoms: _165  and  _166
REMARK   65  A    between atoms: _169  and  _171
REMARK   66  A    between atoms: _171  and  _172
REMARK   67  A    between atoms: _171  and  _174
REMARK   68  A    between atoms: _174  and  _175
REMARK   69  A    between atoms: _175  and  _176
REMARK   70  A    between atoms: _176  and  _177
REMARK   71  A    between atoms: _186  and  _188
REMARK   72  A    between atoms: _188  and  _189
REMARK   73  A    between atoms: _188  and  _191
REMARK   74  A    between atoms: _191  and  _192
REMARK   75  A    between atoms: _192  and  _193
REMARK   76  A    between atoms: _196  and  _198
REMARK   77  A    between atoms: _198  and  _199
REMARK   78  A    between atoms: _198  and  _201
REMARK   79  A    between atoms: _201  and  _202
REMARK   80  A    between atoms: _207  and  _209
REMARK   81  A    between atoms: _209  and  _210
REMARK   82  A    between atoms: _209  and  _212
REMARK   83  A    between atoms: _212  and  _213
REMARK   84  A    between atoms: _216  and  _218
REMARK   85  A    between atoms: _218  and  _219
REMARK   86  A    between atoms: _218  and  _221
REMARK   87  A    between atoms: _221  and  _222
REMARK   88  A    between atoms: _225  and  _227
REMARK   89  A    between atoms: _227  and  _228
REMARK   90  A    between atoms: _227  and  _230
REMARK   91  A    between atoms: _230  and  _231
REMARK   92  A    between atoms: _236  and  _238
REMARK   93  A    between atoms: _238  and  _239
REMARK   94  A    between atoms: _238  and  _241
REMARK   95  A    between atoms: _241  and  _242
REMARK   96  A    between atoms: _247  and  _248
REMARK   97  A    between atoms: _250  and  _252
REMARK   98  A    between atoms: _252  and  _253
REMARK   99  A    between atoms: _252  and  _255
REMARK  100  A    between atoms: _255  and  _256
REMARK  101  A    between atoms: _259  and  _261
REMARK  102  A    between atoms: _261  and  _262
REMARK  103  A    between atoms: _261  and  _264
REMARK  104  A    between atoms: _264  and  _265
REMARK  105  A    between atoms: _270  and  _272
REMARK  106  A    between atoms: _272  and  _273
REMARK  107  A    between atoms: _272  and  _275
REMARK  108  A    between atoms: _275  and  _276
REMARK  109  A    between atoms: _281  and  _283
REMARK  110  A    between atoms: _283  and  _284
REMARK  111  A    between atoms: _283  and  _286
REMARK  112  A    between atoms: _286  and  _287
REMARK  113  A    between atoms: _290  and  _292
REMARK  114  A    between atoms: _292  and  _293
REMARK  115  A    between atoms: _292  and  _295
REMARK  116  A    between atoms: _298  and  _300
REMARK  117  A    between atoms: _300  and  _301
REMARK  118  A    between atoms: _300  and  _303
REMARK  119  A    between atoms: _303  and  _304
REMARK  120  A    between atoms: _307  and  _309
REMARK  121  A    between atoms: _309  and  _310
REMARK  122  A    between atoms: _309  and  _312
REMARK  123  A    between atoms: _312  and  _313
REMARK  124  A    between atoms: _313  and  _314
REMARK  125  A    between atoms: _317  and  _319
REMARK  126  A    between atoms: _319  and  _320
REMARK  127  A    between atoms: _323  and  _325
REMARK  128  A    between atoms: _325  and  _326
REMARK  129  A    between atoms: _325  and  _328
REMARK  130  A    between atoms: _328  and  _329
REMARK  131  A    between atoms: _332  and  _334
REMARK  132  A    between atoms: _334  and  _335
REMARK  133  A    between atoms: _334  and  _337
REMARK  134  A    between atoms: _337  and  _338
REMARK  135  A    between atoms: _338  and  _339
REMARK  136  A    between atoms: _342  and  _344
REMARK  137  A    between atoms: _344  and  _345
REMARK  138  A    between atoms: _344  and  _347
REMARK  139  A    between atoms: _347  and  _348
REMARK  140  A    between atoms: _348  and  _349
REMARK  141  A    between atoms: _349  and  _350
REMARK  142  A    between atoms: _359  and  _361
REMARK  143  A    between atoms: _361  and  _362
REMARK  144  A    between atoms: _361  and  _364
REMARK  145  A    between atoms: _364  and  _365
REMARK  146  A    between atoms: _375  and  _377
REMARK  147  A    between atoms: _377  and  _378
REMARK  148  A    between atoms: _377  and  _380
REMARK  149  A    between atoms: _380  and  _381
REMARK  150  A    between atoms: _381  and  _382
REMARK  151  A    between atoms: _384  and  _386
REMARK  152  A    between atoms: _386  and  _387
REMARK  153  A    between atoms: _390  and  _392
REMARK  154  A    between atoms: _392  and  _393
REMARK  155  A    between atoms: _392  and  _395
REMARK  156  A    between atoms: _395  and  _396
REMARK  157  A    between atoms: _401  and  _403
REMARK  158  A    between atoms: _403  and  _404
REMARK  159  A    between atoms: _406  and  _408
REMARK  160  A    between atoms: _408  and  _409
REMARK  161  A    between atoms: _408  and  _411
REMARK  162  A    between atoms: _414  and  _416
REMARK  163  A    between atoms: _416  and  _417
REMARK  164  A    between atoms: _420  and  _422
REMARK  165  A    between atoms: _422  and  _423
REMARK  166  A    between atoms: _422  and  _425
REMARK  167  A    between atoms: _425  and  _426
REMARK  168  A    between atoms: _431  and  _433
REMARK  169  A    between atoms: _433  and  _434
REMARK  170  A    between atoms: _433  and  _436
REMARK  171  A    between atoms: _436  and  _437
REMARK  172  A    between atoms: _437  and  _438
REMARK  173  A    between atoms: _438  and  _439
REMARK  174  A    between atoms: _439  and  _440
REMARK  175  A    between atoms: _444  and  _446
REMARK  176  A    between atoms: _446  and  _447
REMARK  177  A    between atoms: _446  and  _449
REMARK  178  A    between atoms: _449  and  _450
REMARK  179  A    between atoms: _453  and  _455
REMARK  180  A    between atoms: _455  and  _456
REMARK  181  A    between atoms: _455  and  _458
REMARK  182  A    between atoms: _458  and  _459
REMARK  183  A    between atoms: _464  and  _466
REMARK  184  A    between atoms: _466  and  _467
REMARK  185  A    between atoms: _469  and  _471
REMARK  186  A    between atoms: _471  and  _472
REMARK  187  A    between atoms: _471  and  _474
REMARK  188  A    between atoms: _474  and  _475
REMARK  189  A    between atoms: _475  and  _476
REMARK  190  A    between atoms: _476  and  _477
REMARK  191  A    between atoms: _477  and  _478
REMARK  192  A    between atoms: _482  and  _484
REMARK  193  A    between atoms: _484  and  _485
REMARK  194  A    between atoms: _484  and  _487
REMARK  195  A    between atoms: _487  and  _488
REMARK  196  A    between atoms: _488  and  _489
REMARK  197  A    between atoms: _489  and  _490
REMARK  198  A    between atoms: _499  and  _501
REMARK  199  A    between atoms: _501  and  _502
REMARK  200  A    between atoms: _501  and  _504
REMARK  201  A    between atoms: _504  and  _505
REMARK  202  A    between atoms: _510  and  _511
REMARK  203  A    between atoms: _513  and  _515
REMARK  204  A    between atoms: _515  and  _516
REMARK  205  A    between atoms: _515  and  _518
REMARK  206  A    between atoms: _518  and  _519
REMARK  207  A    between atoms: _519  and  _520
REMARK  208  A    between atoms: _520  and  _521
REMARK  209  A    between atoms: _521  and  _522
REMARK  210  A    between atoms: _526  and  _528
REMARK  211  A    between atoms: _528  and  _529
REMARK  212  A    between atoms: _528  and  _531
REMARK  213  A    between atoms: _531  and  _532
REMARK  214  A    between atoms: _534  and  _536
REMARK  215  A    between atoms: _536  and  _537
REMARK  216  A    between atoms: _536  and  _539
REMARK  217  A    between atoms: _539  and  _540
REMARK  218  A    between atoms: _543  and  _545
REMARK  219  A    between atoms: _545  and  _546
REMARK  220  A    between atoms: _545  and  _548
REMARK  221  A    between atoms: _548  and  _549
REMARK  222  A    between atoms: _549  and  _550
REMARK  223  A    between atoms: _553  and  _555
REMARK  224  A    between atoms: _555  and  _556
REMARK  225  A    between atoms: _559  and  _561
REMARK  226  A    between atoms: _561  and  _562
REMARK  227  A    between atoms: _561  and  _564
REMARK  228  A    between atoms: _564  and  _565
REMARK  229  A    between atoms: _567  and  _569
REMARK  230  A    between atoms: _569  and  _570
REMARK  231  A    between atoms: _572  and  _574
REMARK  232  A    between atoms: _574  and  _575
REMARK  233  A    between atoms: _574  and  _577
REMARK  234  A    between atoms: _577  and  _578
REMARK  235  A    between atoms: _581  and  _583
REMARK  236  A    between atoms: _583  and  _584
REMARK  237  A    between atoms: _586  and  _588
REMARK  238  A    between atoms: _588  and  _589
REMARK  239  A    between atoms: _588  and  _591
REMARK  240  A    between atoms: _591  and  _592
REMARK  241  A    between atoms: _597  and  _599
REMARK  242  A    between atoms: _599  and  _600
REMARK  243  A    between atoms: _599  and  _602
REMARK  244  A    between atoms: _602  and  _603
REMARK  245  A    between atoms: _603  and  _604
REMARK  246  A    between atoms: _611  and  _612
REMARK  247  A    between atoms: _612  and  _628
REMARK  248  A    between atoms: _613  and  _615
REMARK  249  A    between atoms: _615  and  _616
REMARK  250  A    between atoms: _616  and  _617
REMARK  251  A    between atoms: _621  and  _623
REMARK  252  A    between atoms: _623  and  _624
REMARK  253  A    between atoms: _623  and  _631
REMARK  254  A    between atoms: _624  and  _625
REMARK  255  A    between atoms: _625  and  _626
REMARK  256  A    between atoms: _626  and  _627
REMARK  257  A    between atoms: _627  and  _628
REMARK  258  A    between atoms: _633  and  _635
REMARK  259  A    between atoms: _635  and  _636
REMARK  260  A    between atoms: _635  and  _638
REMARK  261  A    between atoms: _638  and  _639
REMARK  262  A    between atoms: _642  and  _644
REMARK  263  A    between atoms: _644  and  _645
REMARK  264  A    between atoms: _647  and  _649
REMARK  265  A    between atoms: _649  and  _650
REMARK  266  A    between atoms: _653  and  _655
REMARK  267  A    between atoms: _655  and  _656
REMARK  268  A    between atoms: _655  and  _658
REMARK  269  A    between atoms: _658  and  _659
REMARK  270  A    between atoms: _664  and  _665
REMARK                            x       y       z     vdW  Elec       q    Type
REMARK                         _______ _______ _______ _____ _____    ______ ____
ROOT
ATOM      1  O   HOH     1      41.286  26.653  37.886  0.00  0.00    +0.000 OA
ENDROOT
TORSDOF 0
REMARK  Name = ../refined-set-2016/4el0/4el0_pocket.pdb
REMARK  270 active torsions:
REMARK  status: ('A' for Active; 'I' for Inactive)
REMARK    1  A    between atoms: _1  and  _3
REMARK    2  A    between atoms: _3  and  _4
REMARK    3  A    between atoms: _3  and  _6
REMARK    4  A    between atoms: _6  and  _7
REMARK    5  A    between atoms: _12  and  _13
REMARK    6  A    between atoms: _15  and  _17
REMARK    7  A    between atoms: _17  and  _18
REMARK    8  A    between atoms: _17  and  _20
REMARK    9  A    between atoms: _20  and  _21
REMARK   10  A    between atoms: _21  and  _22
REMARK   11  A    between atoms: _25  and  _27
REMARK   12  A    between atoms: _27  and  _28
REMARK   13  A    between atoms: _27  and  _30
REMARK   14  A    between atoms: _30  and  _31
REMARK   15  A    between atoms: _36  and  _38
REMARK   16  A    between atoms: _38  and  _39
REMARK   17  A    between atoms: _41  and  _43
REMARK   18  A    between atoms: _43  and  _44
REMARK   19  A    between atoms: _46  and  _48
REMARK   20  A    between atoms: _48  and  _49
REMARK   21  A    between atoms: _48  and  _51
REMARK   22  A    between atoms: _51  and  _52
REMARK   23  A    between atoms: _55  and  _57
REMARK   24  A    between atoms: _57  and  _58
REMARK   25  A    between atoms: _60  and  _62
REMARK   26  A    between atoms: _62  and  _63
REMARK   27  A    between atoms: _62  and  _65
REMARK   28  A    between atoms: _66  and  _67
REMARK   29  A    between atoms: _67  and  _68
REMARK   30  A    between atoms: _77  and  _79
REMARK   31  A    between atoms: _79  and  _80
REMARK   32  A    between atoms: _79  and  _82
REMARK   33  A    between atoms: _82  and  _83
REMARK   34  A    between atoms: _86  and  _88
REMARK   35  A    between atoms: _88  and  _89
REMARK   36  A    between atoms: _92  and  _94
REMARK   37  A    between atoms: _94  and  _95
REMARK   38  A    between atoms: _94  and  _97
REMARK   39  A    between atoms: _97  and  _98
REMARK   40  A    between atoms: _104  and  _106
REMARK   41  A    between atoms: _106  and  _107
REMARK   42  A    between atoms: _106  and  _109
REMARK   43  A    between atoms: _109  and  _110
REMARK   44  A    between atoms: _115  and  _117
REMARK   45  A    between atoms: _117  and  _118
REMARK   46  A    between atoms: _117  and  _120
REMARK   47  A    between atoms: _120  and  _121
REMARK   48  A    between atoms: _124  and  _126
REMARK   49  A    between atoms: _126  and  _127
REMARK   50  A    between atoms: _126  and  _129
REMARK   51  A    between atoms: _129  and  _130
REMARK   52  A    between atoms: _135  and  _137
REMARK   53  A    between atoms: _137  and  _138
REMARK   54  A    between atoms: _137  and  _140
REMARK   55  A    between atoms: _140  and  _141
REMARK   56  A    between atoms: _147  and  _149
REMARK   57  A    between atoms: _149  and  _150
REMARK   58  A    between atoms: _149  and  _152
REMARK   59  A    between atoms: _152  and  _153
REMARK   60  A    between atoms: _159  and  _161
REMARK   61  A    between atoms: _161  and  _162
REMARK   62  A    between atoms: _161  and  _164
REMARK   63  A    between atoms: _164  and  _165
REMARK   64  A    between atoms: _165  and  _166
REMARK   65  A    between atoms: _169  and  _171
REMARK   66  A    between atoms: _171  and  _172
REMARK   67  A    between atoms: _171  and  _174
REMARK   68  A    between atoms: _174  and  _175
REMARK   69  A    between atoms: _175  and  _176
REMARK   70  A    between atoms: _176  and  _177
REMARK   71  A    between atoms: _186  and  _188
REMARK   72  A    between atoms: _188  and  _189
REMARK   73  A    between atoms: _188  and  _191
REMARK   74  A    between atoms: _191  and  _192
REMARK   75  A    between atoms: _192  and  _193
REMARK   76  A    between atoms: _196  and  _198
REMARK   77  A    between atoms: _198  and  _199
REMARK   78  A    between atoms: _198  and  _201
REMARK   79  A    between atoms: _201  and  _202
REMARK   80  A    between atoms: _207  and  _209
REMARK   81  A    between atoms: _209  and  _210
REMARK   82  A    between atoms: _209  and  _212
REMARK   83  A    between atoms: _212  and  _213
REMARK   84  A    between atoms: _216  and  _218
REMARK   85  A    between atoms: _218  and  _219
REMARK   86  A    between atoms: _218  and  _221
REMARK   87  A    between atoms: _221  and  _222
REMARK   88  A    between atoms: _225  and  _227
REMARK   89  A    between atoms: _227  and  _228
REMARK   90  A    between atoms: _227  and  _230
REMARK   91  A    between atoms: _230  and  _231
REMARK   92  A    between atoms: _236  and  _238
REMARK   93  A    between atoms: _238  and  _239
REMARK   94  A    between atoms: _238  and  _241
REMARK   95  A    between atoms: _241  and  _242
REMARK   96  A    between atoms: _247  and  _248
REMARK   97  A    between atoms: _250  and  _252
REMARK   98  A    between atoms: _252  and  _253
REMARK   99  A    between atoms: _252  and  _255
REMARK  100  A    between atoms: _255  and  _256
REMARK  101  A    between atoms: _259  and  _261
REMARK  102  A    between atoms: _261  and  _262
REMARK  103  A    between atoms: _261  and  _264
REMARK  104  A    between atoms: _264  and  _265
REMARK  105  A    between atoms: _270  and  _272
REMARK  106  A    between atoms: _272  and  _273
REMARK  107  A    between atoms: _272  and  _275
REMARK  108  A    between atoms: _275  and  _276
REMARK  109  A    between atoms: _281  and  _283
REMARK  110  A    between atoms: _283  and  _284
REMARK  111  A    between atoms: _283  and  _286
REMARK  112  A    between atoms: _286  and  _287
REMARK  113  A    between atoms: _290  and  _292
REMARK  114  A    between atoms: _292  and  _293
REMARK  115  A    between atoms: _292  and  _295
REMARK  116  A    between atoms: _298  and  _300
REMARK  117  A    between atoms: _300  and  _301
REMARK  118  A    between atoms: _300  and  _303
REMARK  119  A    between atoms: _303  and  _304
REMARK  120  A    between atoms: _307  and  _309
REMARK  121  A    between atoms: _309  and  _310
REMARK  122  A    between atoms: _309  and  _312
REMARK  123  A    between atoms: _312  and  _313
REMARK  124  A    between atoms: _313  and  _314
REMARK  125  A    between atoms: _317  and  _319
REMARK  126  A    between atoms: _319  and  _320
REMARK  127  A    between atoms: _323  and  _325
REMARK  128  A    between atoms: _325  and  _326
REMARK  129  A    between atoms: _325  and  _328
REMARK  130  A    between atoms: _328  and  _329
REMARK  131  A    between atoms: _332  and  _334
REMARK  132  A    between atoms: _334  and  _335
REMARK  133  A    between atoms: _334  and  _337
REMARK  134  A    between atoms: _337  and  _338
REMARK  135  A    between atoms: _338  and  _339
REMARK  136  A    between atoms: _342  and  _344
REMARK  137  A    between atoms: _344  and  _345
REMARK  138  A    between atoms: _344  and  _347
REMARK  139  A    between atoms: _347  and  _348
REMARK  140  A    between atoms: _348  and  _349
REMARK  141  A    between atoms: _349  and  _350
REMARK  142  A    between atoms: _359  and  _361
REMARK  143  A    between atoms: _361  and  _362
REMARK  144  A    between atoms: _361  and  _364
REMARK  145  A    between atoms: _364  and  _365
REMARK  146  A    between atoms: _375  and  _377
REMARK  147  A    between atoms: _377  and  _378
REMARK  148  A    between atoms: _377  and  _380
REMARK  149  A    between atoms: _380  and  _381
REMARK  150  A    between atoms: _381  and  _382
REMARK  151  A    between atoms: _384  and  _386
REMARK  152  A    between atoms: _386  and  _387
REMARK  153  A    between atoms: _390  and  _392
REMARK  154  A    between atoms: _392  and  _393
REMARK  155  A    between atoms: _392  and  _395
REMARK  156  A    between atoms: _395  and  _396
REMARK  157  A    between atoms: _401  and  _403
REMARK  158  A    between atoms: _403  and  _404
REMARK  159  A    between atoms: _406  and  _408
REMARK  160  A    between atoms: _408  and  _409
REMARK  161  A    between atoms: _408  and  _411
REMARK  162  A    between atoms: _414  and  _416
REMARK  163  A    between atoms: _416  and  _417
REMARK  164  A    between atoms: _420  and  _422
REMARK  165  A    between atoms: _422  and  _423
REMARK  166  A    between atoms: _422  and  _425
REMARK  167  A    between atoms: _425  and  _426
REMARK  168  A    between atoms: _431  and  _433
REMARK  169  A    between atoms: _433  and  _434
REMARK  170  A    between atoms: _433  and  _436
REMARK  171  A    between atoms: _436  and  _437
REMARK  172  A    between atoms: _437  and  _438
REMARK  173  A    between atoms: _438  and  _439
REMARK  174  A    between atoms: _439  and  _440
REMARK  175  A    between atoms: _444  and  _446
REMARK  176  A    between atoms: _446  and  _447
REMARK  177  A    between atoms: _446  and  _449
REMARK  178  A    between atoms: _449  and  _450
REMARK  179  A    between atoms: _453  and  _455
REMARK  180  A    between atoms: _455  and  _456
REMARK  181  A    between atoms: _455  and  _458
REMARK  182  A    between atoms: _458  and  _459
REMARK  183  A    between atoms: _464  and  _466
REMARK  184  A    between atoms: _466  and  _467
REMARK  185  A    between atoms: _469  and  _471
REMARK  186  A    between atoms: _471  and  _472
REMARK  187  A    between atoms: _471  and  _474
REMARK  188  A    between atoms: _474  and  _475
REMARK  189  A    between atoms: _475  and  _476
REMARK  190  A    between atoms: _476  and  _477
REMARK  191  A    between atoms: _477  and  _478
REMARK  192  A    between atoms: _482  and  _484
REMARK  193  A    between atoms: _484  and  _485
REMARK  194  A    between atoms: _484  and  _487
REMARK  195  A    between atoms: _487  and  _488
REMARK  196  A    between atoms: _488  and  _489
REMARK  197  A    between atoms: _489  and  _490
REMARK  198  A    between atoms: _499  and  _501
REMARK  199  A    between atoms: _501  and  _502
REMARK  200  A    between atoms: _501  and  _504
REMARK  201  A    between atoms: _504  and  _505
REMARK  202  A    between atoms: _510  and  _511
REMARK  203  A    between atoms: _513  and  _515
REMARK  204  A    between atoms: _515  and  _516
REMARK  205  A    between atoms: _515  and  _518
REMARK  206  A    between atoms: _518  and  _519
REMARK  207  A    between atoms: _519  and  _520
REMARK  208  A    between atoms: _520  and  _521
REMARK  209  A    between atoms: _521  and  _522
REMARK  210  A    between atoms: _526  and  _528
REMARK  211  A    between atoms: _528  and  _529
REMARK  212  A    between atoms: _528  and  _531
REMARK  213  A    between atoms: _531  and  _532
REMARK  214  A    between atoms: _534  and  _536
REMARK  215  A    between atoms: _536  and  _537
REMARK  216  A    between atoms: _536  and  _539
REMARK  217  A    between atoms: _539  and  _540
REMARK  218  A    between atoms: _543  and  _545
REMARK  219  A    between atoms: _545  and  _546
REMARK  220  A    between atoms: _545  and  _548
REMARK  221  A    between atoms: _548  and  _549
REMARK  222  A    between atoms: _549  and  _550
REMARK  223  A    between atoms: _553  and  _555
REMARK  224  A    between atoms: _555  and  _556
REMARK  225  A    between atoms: _559  and  _561
REMARK  226  A    between atoms: _561  and  _562
REMARK  227  A    between atoms: _561  and  _564
REMARK  228  A    between atoms: _564  and  _565
REMARK  229  A    between atoms: _567  and  _569
REMARK  230  A    between atoms: _569  and  _570
REMARK  231  A    between atoms: _572  and  _574
REMARK  232  A    between atoms: _574  and  _575
REMARK  233  A    between atoms: _574  and  _577
REMARK  234  A    between atoms: _577  and  _578
REMARK  235  A    between atoms: _581  and  _583
REMARK  236  A    between atoms: _583  and  _584
REMARK  237  A    between atoms: _586  and  _588
REMARK  238  A    between atoms: _588  and  _589
REMARK  239  A    between atoms: _588  and  _591
REMARK  240  A    between atoms: _591  and  _592
REMARK  241  A    between atoms: _597  and  _599
REMARK  242  A    between atoms: _599  and  _600
REMARK  243  A    between atoms: _599  and  _602
REMARK  244  A    between atoms: _602  and  _603
REMARK  245  A    between atoms: _603  and  _604
REMARK  246  A    between atoms: _611  and  _612
REMARK  247  A    between atoms: _612  and  _628
REMARK  248  A    between atoms: _613  and  _615
REMARK  249  A    between atoms: _615  and  _616
REMARK  250  A    between atoms: _616  and  _617
REMARK  251  A    between atoms: _621  and  _623
REMARK  252  A    between atoms: _623  and  _624
REMARK  253  A    between atoms: _623  and  _631
REMARK  254  A    between atoms: _624  and  _625
REMARK  255  A    between atoms: _625  and  _626
REMARK  256  A    between atoms: _626  and  _627
REMARK  257  A    between atoms: _627  and  _628
REMARK  258  A    between atoms: _633  and  _635
REMARK  259  A    between atoms: _635  and  _636
REMARK  260  A    between atoms: _635  and  _638
REMARK  261  A    between atoms: _638  and  _639
REMARK  262  A    between atoms: _642  and  _644
REMARK  263  A    between atoms: _644  and  _645
REMARK  264  A    between atoms: _647  and  _649
REMARK  265  A    between atoms: _649  and  _650
REMARK  266  A    between atoms: _653  and  _655
REMARK  267  A    between atoms: _655  and  _656
REMARK  268  A    between atoms: _655  and  _658
REMARK  269  A    between atoms: _658  and  _659
REMARK  270  A    between atoms: _664  and  _665
REMARK                            x       y       z     vdW  Elec       q    Type
REMARK                         _______ _______ _______ _____ _____    ______ ____
ROOT
ATOM      1  O   HOH     1      45.147  22.002  38.805  0.00  0.00    +0.000 OA
ENDROOT
TORSDOF 0
REMARK  Name = ../refined-set-2016/4el0/4el0_pocket.pdb
REMARK  270 active torsions:
REMARK  status: ('A' for Active; 'I' for Inactive)
REMARK    1  A    between atoms: _1  and  _3
REMARK    2  A    between atoms: _3  and  _4
REMARK    3  A    between atoms: _3  and  _6
REMARK    4  A    between atoms: _6  and  _7
REMARK    5  A    between atoms: _12  and  _13
REMARK    6  A    between atoms: _15  and  _17
REMARK    7  A    between atoms: _17  and  _18
REMARK    8  A    between atoms: _17  and  _20
REMARK    9  A    between atoms: _20  and  _21
REMARK   10  A    between atoms: _21  and  _22
REMARK   11  A    between atoms: _25  and  _27
REMARK   12  A    between atoms: _27  and  _28
REMARK   13  A    between atoms: _27  and  _30
REMARK   14  A    between atoms: _30  and  _31
REMARK   15  A    between atoms: _36  and  _38
REMARK   16  A    between atoms: _38  and  _39
REMARK   17  A    between atoms: _41  and  _43
REMARK   18  A    between atoms: _43  and  _44
REMARK   19  A    between atoms: _46  and  _48
REMARK   20  A    between atoms: _48  and  _49
REMARK   21  A    between atoms: _48  and  _51
REMARK   22  A    between atoms: _51  and  _52
REMARK   23  A    between atoms: _55  and  _57
REMARK   24  A    between atoms: _57  and  _58
REMARK   25  A    between atoms: _60  and  _62
REMARK   26  A    between atoms: _62  and  _63
REMARK   27  A    between atoms: _62  and  _65
REMARK   28  A    between atoms: _66  and  _67
REMARK   29  A    between atoms: _67  and  _68
REMARK   30  A    between atoms: _77  and  _79
REMARK   31  A    between atoms: _79  and  _80
REMARK   32  A    between atoms: _79  and  _82
REMARK   33  A    between atoms: _82  and  _83
REMARK   34  A    between atoms: _86  and  _88
REMARK   35  A    between atoms: _88  and  _89
REMARK   36  A    between atoms: _92  and  _94
REMARK   37  A    between atoms: _94  and  _95
REMARK   38  A    between atoms: _94  and  _97
REMARK   39  A    between atoms: _97  and  _98
REMARK   40  A    between atoms: _104  and  _106
REMARK   41  A    between atoms: _106  and  _107
REMARK   42  A    between atoms: _106  and  _109
REMARK   43  A    between atoms: _109  and  _110
REMARK   44  A    between atoms: _115  and  _117
REMARK   45  A    between atoms: _117  and  _118
REMARK   46  A    between atoms: _117  and  _120
REMARK   47  A    between atoms: _120  and  _121
REMARK   48  A    between atoms: _124  and  _126
REMARK   49  A    between atoms: _126  and  _127
REMARK   50  A    between atoms: _126  and  _129
REMARK   51  A    between atoms: _129  and  _130
REMARK   52  A    between atoms: _135  and  _137
REMARK   53  A    between atoms: _137  and  _138
REMARK   54  A    between atoms: _137  and  _140
REMARK   55  A    between atoms: _140  and  _141
REMARK   56  A    between atoms: _147  and  _149
REMARK   57  A    between atoms: _149  and  _150
REMARK   58  A    between atoms: _149  and  _152
REMARK   59  A    between atoms: _152  and  _153
REMARK   60  A    between atoms: _159  and  _161
REMARK   61  A    between atoms: _161  and  _162
REMARK   62  A    between atoms: _161  and  _164
REMARK   63  A    between atoms: _164  and  _165
REMARK   64  A    between atoms: _165  and  _166
REMARK   65  A    between atoms: _169  and  _171
REMARK   66  A    between atoms: _171  and  _172
REMARK   67  A    between atoms: _171  and  _174
REMARK   68  A    between atoms: _174  and  _175
REMARK   69  A    between atoms: _175  and  _176
REMARK   70  A    between atoms: _176  and  _177
REMARK   71  A    between atoms: _186  and  _188
REMARK   72  A    between atoms: _188  and  _189
REMARK   73  A    between atoms: _188  and  _191
REMARK   74  A    between atoms: _191  and  _192
REMARK   75  A    between atoms: _192  and  _193
REMARK   76  A    between atoms: _196  and  _198
REMARK   77  A    between atoms: _198  and  _199
REMARK   78  A    between atoms: _198  and  _201
REMARK   79  A    between atoms: _201  and  _202
REMARK   80  A    between atoms: _207  and  _209
REMARK   81  A    between atoms: _209  and  _210
REMARK   82  A    between atoms: _209  and  _212
REMARK   83  A    between atoms: _212  and  _213
REMARK   84  A    between atoms: _216  and  _218
REMARK   85  A    between atoms: _218  and  _219
REMARK   86  A    between atoms: _218  and  _221
REMARK   87  A    between atoms: _221  and  _222
REMARK   88  A    between atoms: _225  and  _227
REMARK   89  A    between atoms: _227  and  _228
REMARK   90  A    between atoms: _227  and  _230
REMARK   91  A    between atoms: _230  and  _231
REMARK   92  A    between atoms: _236  and  _238
REMARK   93  A    between atoms: _238  and  _239
REMARK   94  A    between atoms: _238  and  _241
REMARK   95  A    between atoms: _241  and  _242
REMARK   96  A    between atoms: _247  and  _248
REMARK   97  A    between atoms: _250  and  _252
REMARK   98  A    between atoms: _252  and  _253
REMARK   99  A    between atoms: _252  and  _255
REMARK  100  A    between atoms: _255  and  _256
REMARK  101  A    between atoms: _259  and  _261
REMARK  102  A    between atoms: _261  and  _262
REMARK  103  A    between atoms: _261  and  _264
REMARK  104  A    between atoms: _264  and  _265
REMARK  105  A    between atoms: _270  and  _272
REMARK  106  A    between atoms: _272  and  _273
REMARK  107  A    between atoms: _272  and  _275
REMARK  108  A    between atoms: _275  and  _276
REMARK  109  A    between atoms: _281  and  _283
REMARK  110  A    between atoms: _283  and  _284
REMARK  111  A    between atoms: _283  and  _286
REMARK  112  A    between atoms: _286  and  _287
REMARK  113  A    between atoms: _290  and  _292
REMARK  114  A    between atoms: _292  and  _293
REMARK  115  A    between atoms: _292  and  _295
REMARK  116  A    between atoms: _298  and  _300
REMARK  117  A    between atoms: _300  and  _301
REMARK  118  A    between atoms: _300  and  _303
REMARK  119  A    between atoms: _303  and  _304
REMARK  120  A    between atoms: _307  and  _309
REMARK  121  A    between atoms: _309  and  _310
REMARK  122  A    between atoms: _309  and  _312
REMARK  123  A    between atoms: _312  and  _313
REMARK  124  A    between atoms: _313  and  _314
REMARK  125  A    between atoms: _317  and  _319
REMARK  126  A    between atoms: _319  and  _320
REMARK  127  A    between atoms: _323  and  _325
REMARK  128  A    between atoms: _325  and  _326
REMARK  129  A    between atoms: _325  and  _328
REMARK  130  A    between atoms: _328  and  _329
REMARK  131  A    between atoms: _332  and  _334
REMARK  132  A    between atoms: _334  and  _335
REMARK  133  A    between atoms: _334  and  _337
REMARK  134  A    between atoms: _337  and  _338
REMARK  135  A    between atoms: _338  and  _339
REMARK  136  A    between atoms: _342  and  _344
REMARK  137  A    between atoms: _344  and  _345
REMARK  138  A    between atoms: _344  and  _347
REMARK  139  A    between atoms: _347  and  _348
REMARK  140  A    between atoms: _348  and  _349
REMARK  141  A    between atoms: _349  and  _350
REMARK  142  A    between atoms: _359  and  _361
REMARK  143  A    between atoms: _361  and  _362
REMARK  144  A    between atoms: _361  and  _364
REMARK  145  A    between atoms: _364  and  _365
REMARK  146  A    between atoms: _375  and  _377
REMARK  147  A    between atoms: _377  and  _378
REMARK  148  A    between atoms: _377  and  _380
REMARK  149  A    between atoms: _380  and  _381
REMARK  150  A    between atoms: _381  and  _382
REMARK  151  A    between atoms: _384  and  _386
REMARK  152  A    between atoms: _386  and  _387
REMARK  153  A    between atoms: _390  and  _392
REMARK  154  A    between atoms: _392  and  _393
REMARK  155  A    between atoms: _392  and  _395
REMARK  156  A    between atoms: _395  and  _396
REMARK  157  A    between atoms: _401  and  _403
REMARK  158  A    between atoms: _403  and  _404
REMARK  159  A    between atoms: _406  and  _408
REMARK  160  A    between atoms: _408  and  _409
REMARK  161  A    between atoms: _408  and  _411
REMARK  162  A    between atoms: _414  and  _416
REMARK  163  A    between atoms: _416  and  _417
REMARK  164  A    between atoms: _420  and  _422
REMARK  165  A    between atoms: _422  and  _423
REMARK  166  A    between atoms: _422  and  _425
REMARK  167  A    between atoms: _425  and  _426
REMARK  168  A    between atoms: _431  and  _433
REMARK  169  A    between atoms: _433  and  _434
REMARK  170  A    between atoms: _433  and  _436
REMARK  171  A    between atoms: _436  and  _437
REMARK  172  A    between atoms: _437  and  _438
REMARK  173  A    between atoms: _438  and  _439
REMARK  174  A    between atoms: _439  and  _440
REMARK  175  A    between atoms: _444  and  _446
REMARK  176  A    between atoms: _446  and  _447
REMARK  177  A    between atoms: _446  and  _449
REMARK  178  A    between atoms: _449  and  _450
REMARK  179  A    between atoms: _453  and  _455
REMARK  180  A    between atoms: _455  and  _456
REMARK  181  A    between atoms: _455  and  _458
REMARK  182  A    between atoms: _458  and  _459
REMARK  183  A    between atoms: _464  and  _466
REMARK  184  A    between atoms: _466  and  _467
REMARK  185  A    between atoms: _469  and  _471
REMARK  186  A    between atoms: _471  and  _472
REMARK  187  A    between atoms: _471  and  _474
REMARK  188  A    between atoms: _474  and  _475
REMARK  189  A    between atoms: _475  and  _476
REMARK  190  A    between atoms: _476  and  _477
REMARK  191  A    between atoms: _477  and  _478
REMARK  192  A    between atoms: _482  and  _484
REMARK  193  A    between atoms: _484  and  _485
REMARK  194  A    between atoms: _484  and  _487
REMARK  195  A    between atoms: _487  and  _488
REMARK  196  A    between atoms: _488  and  _489
REMARK  197  A    between atoms: _489  and  _490
REMARK  198  A    between atoms: _499  and  _501
REMARK  199  A    between atoms: _501  and  _502
REMARK  200  A    between atoms: _501  and  _504
REMARK  201  A    between atoms: _504  and  _505
REMARK  202  A    between atoms: _510  and  _511
REMARK  203  A    between atoms: _513  and  _515
REMARK  204  A    between atoms: _515  and  _516
REMARK  205  A    between atoms: _515  and  _518
REMARK  206  A    between atoms: _518  and  _519
REMARK  207  A    between atoms: _519  and  _520
REMARK  208  A    between atoms: _520  and  _521
REMARK  209  A    between atoms: _521  and  _522
REMARK  210  A    between atoms: _526  and  _528
REMARK  211  A    between atoms: _528  and  _529
REMARK  212  A    between atoms: _528  and  _531
REMARK  213  A    between atoms: _531  and  _532
REMARK  214  A    between atoms: _534  and  _536
REMARK  215  A    between atoms: _536  and  _537
REMARK  216  A    between atoms: _536  and  _539
REMARK  217  A    between atoms: _539  and  _540
REMARK  218  A    between atoms: _543  and  _545
REMARK  219  A    between atoms: _545  and  _546
REMARK  220  A    between atoms: _545  and  _548
REMARK  221  A    between atoms: _548  and  _549
REMARK  222  A    between atoms: _549  and  _550
REMARK  223  A    between atoms: _553  and  _555
REMARK  224  A    between atoms: _555  and  _556
REMARK  225  A    between atoms: _559  and  _561
REMARK  226  A    between atoms: _561  and  _562
REMARK  227  A    between atoms: _561  and  _564
REMARK  228  A    between atoms: _564  and  _565
REMARK  229  A    between atoms: _567  and  _569
REMARK  230  A    between atoms: _569  and  _570
REMARK  231  A    between atoms: _572  and  _574
REMARK  232  A    between atoms: _574  and  _575
REMARK  233  A    between atoms: _574  and  _577
REMARK  234  A    between atoms: _577  and  _578
REMARK  235  A    between atoms: _581  and  _583
REMARK  236  A    between atoms: _583  and  _584
REMARK  237  A    between atoms: _586  and  _588
REMARK  238  A    between atoms: _588  and  _589
REMARK  239  A    between atoms: _588  and  _591
REMARK  240  A    between atoms: _591  and  _592
REMARK  241  A    between atoms: _597  and  _599
REMARK  242  A    between atoms: _599  and  _600
REMARK  243  A    between atoms: _599  and  _602
REMARK  244  A    between atoms: _602  and  _603
REMARK  245  A    between atoms: _603  and  _604
REMARK  246  A    between atoms: _611  and  _612
REMARK  247  A    between atoms: _612  and  _628
REMARK  248  A    between atoms: _613  and  _615
REMARK  249  A    between atoms: _615  and  _616
REMARK  250  A    between atoms: _616  and  _617
REMARK  251  A    between atoms: _621  and  _623
REMARK  252  A    between atoms: _623  and  _624
REMARK  253  A    between atoms: _623  and  _631
REMARK  254  A    between atoms: _624  and  _625
REMARK  255  A    between atoms: _625  and  _626
REMARK  256  A    between atoms: _626  and  _627
REMARK  257  A    between atoms: _627  and  _628
REMARK  258  A    between atoms: _633  and  _635
REMARK  259  A    between atoms: _635  and  _636
REMARK  260  A    between atoms: _635  and  _638
REMARK  261  A    between atoms: _638  and  _639
REMARK  262  A    between atoms: _642  and  _644
REMARK  263  A    between atoms: _644  and  _645
REMARK  264  A    between atoms: _647  and  _649
REMARK  265  A    between atoms: _649  and  _650
REMARK  266  A    between atoms: _653  and  _655
REMARK  267  A    between atoms: _655  and  _656
REMARK  268  A    between atoms: _655  and  _658
REMARK  269  A    between atoms: _658  and  _659
REMARK  270  A    between atoms: _664  and  _665
REMARK                            x       y       z     vdW  Elec       q    Type
REMARK                         _______ _______ _______ _____ _____    ______ ____
ROOT
ATOM      1  O   HOH     1      36.814  22.241  18.178  0.00  0.00    +0.000 OA
ENDROOT
TORSDOF 0
REMARK  Name = ../refined-set-2016/4el0/4el0_pocket.pdb
REMARK  270 active torsions:
REMARK  status: ('A' for Active; 'I' for Inactive)
REMARK    1  A    between atoms: _1  and  _3
REMARK    2  A    between atoms: _3  and  _4
REMARK    3  A    between atoms: _3  and  _6
REMARK    4  A    between atoms: _6  and  _7
REMARK    5  A    between atoms: _12  and  _13
REMARK    6  A    between atoms: _15  and  _17
REMARK    7  A    between atoms: _17  and  _18
REMARK    8  A    between atoms: _17  and  _20
REMARK    9  A    between atoms: _20  and  _21
REMARK   10  A    between atoms: _21  and  _22
REMARK   11  A    between atoms: _25  and  _27
REMARK   12  A    between atoms: _27  and  _28
REMARK   13  A    between atoms: _27  and  _30
REMARK   14  A    between atoms: _30  and  _31
REMARK   15  A    between atoms: _36  and  _38
REMARK   16  A    between atoms: _38  and  _39
REMARK   17  A    between atoms: _41  and  _43
REMARK   18  A    between atoms: _43  and  _44
REMARK   19  A    between atoms: _46  and  _48
REMARK   20  A    between atoms: _48  and  _49
REMARK   21  A    between atoms: _48  and  _51
REMARK   22  A    between atoms: _51  and  _52
REMARK   23  A    between atoms: _55  and  _57
REMARK   24  A    between atoms: _57  and  _58
REMARK   25  A    between atoms: _60  and  _62
REMARK   26  A    between atoms: _62  and  _63
REMARK   27  A    between atoms: _62  and  _65
REMARK   28  A    between atoms: _66  and  _67
REMARK   29  A    between atoms: _67  and  _68
REMARK   30  A    between atoms: _77  and  _79
REMARK   31  A    between atoms: _79  and  _80
REMARK   32  A    between atoms: _79  and  _82
REMARK   33  A    between atoms: _82  and  _83
REMARK   34  A    between atoms: _86  and  _88
REMARK   35  A    between atoms: _88  and  _89
REMARK   36  A    between atoms: _92  and  _94
REMARK   37  A    between atoms: _94  and  _95
REMARK   38  A    between atoms: _94  and  _97
REMARK   39  A    between atoms: _97  and  _98
REMARK   40  A    between atoms: _104  and  _106
REMARK   41  A    between atoms: _106  and  _107
REMARK   42  A    between atoms: _106  and  _109
REMARK   43  A    between atoms: _109  and  _110
REMARK   44  A    between atoms: _115  and  _117
REMARK   45  A    between atoms: _117  and  _118
REMARK   46  A    between atoms: _117  and  _120
REMARK   47  A    between atoms: _120  and  _121
REMARK   48  A    between atoms: _124  and  _126
REMARK   49  A    between atoms: _126  and  _127
REMARK   50  A    between atoms: _126  and  _129
REMARK   51  A    between atoms: _129  and  _130
REMARK   52  A    between atoms: _135  and  _137
REMARK   53  A    between atoms: _137  and  _138
REMARK   54  A    between atoms: _137  and  _140
REMARK   55  A    between atoms: _140  and  _141
REMARK   56  A    between atoms: _147  and  _149
REMARK   57  A    between atoms: _149  and  _150
REMARK   58  A    between atoms: _149  and  _152
REMARK   59  A    between atoms: _152  and  _153
REMARK   60  A    between atoms: _159  and  _161
REMARK   61  A    between atoms: _161  and  _162
REMARK   62  A    between atoms: _161  and  _164
REMARK   63  A    between atoms: _164  and  _165
REMARK   64  A    between atoms: _165  and  _166
REMARK   65  A    between atoms: _169  and  _171
REMARK   66  A    between atoms: _171  and  _172
REMARK   67  A    between atoms: _171  and  _174
REMARK   68  A    between atoms: _174  and  _175
REMARK   69  A    between atoms: _175  and  _176
REMARK   70  A    between atoms: _176  and  _177
REMARK   71  A    between atoms: _186  and  _188
REMARK   72  A    between atoms: _188  and  _189
REMARK   73  A    between atoms: _188  and  _191
REMARK   74  A    between atoms: _191  and  _192
REMARK   75  A    between atoms: _192  and  _193
REMARK   76  A    between atoms: _196  and  _198
REMARK   77  A    between atoms: _198  and  _199
REMARK   78  A    between atoms: _198  and  _201
REMARK   79  A    between atoms: _201  and  _202
REMARK   80  A    between atoms: _207  and  _209
REMARK   81  A    between atoms: _209  and  _210
REMARK   82  A    between atoms: _209  and  _212
REMARK   83  A    between atoms: _212  and  _213
REMARK   84  A    between atoms: _216  and  _218
REMARK   85  A    between atoms: _218  and  _219
REMARK   86  A    between atoms: _218  and  _221
REMARK   87  A    between atoms: _221  and  _222
REMARK   88  A    between atoms: _225  and  _227
REMARK   89  A    between atoms: _227  and  _228
REMARK   90  A    between atoms: _227  and  _230
REMARK   91  A    between atoms: _230  and  _231
REMARK   92  A    between atoms: _236  and  _238
REMARK   93  A    between atoms: _238  and  _239
REMARK   94  A    between atoms: _238  and  _241
REMARK   95  A    between atoms: _241  and  _242
REMARK   96  A    between atoms: _247  and  _248
REMARK   97  A    between atoms: _250  and  _252
REMARK   98  A    between atoms: _252  and  _253
REMARK   99  A    between atoms: _252  and  _255
REMARK  100  A    between atoms: _255  and  _256
REMARK  101  A    between atoms: _259  and  _261
REMARK  102  A    between atoms: _261  and  _262
REMARK  103  A    between atoms: _261  and  _264
REMARK  104  A    between atoms: _264  and  _265
REMARK  105  A    between atoms: _270  and  _272
REMARK  106  A    between atoms: _272  and  _273
REMARK  107  A    between atoms: _272  and  _275
REMARK  108  A    between atoms: _275  and  _276
REMARK  109  A    between atoms: _281  and  _283
REMARK  110  A    between atoms: _283  and  _284
REMARK  111  A    between atoms: _283  and  _286
REMARK  112  A    between atoms: _286  and  _287
REMARK  113  A    between atoms: _290  and  _292
REMARK  114  A    between atoms: _292  and  _293
REMARK  115  A    between atoms: _292  and  _295
REMARK  116  A    between atoms: _298  and  _300
REMARK  117  A    between atoms: _300  and  _301
REMARK  118  A    between atoms: _300  and  _303
REMARK  119  A    between atoms: _303  and  _304
REMARK  120  A    between atoms: _307  and  _309
REMARK  121  A    between atoms: _309  and  _310
REMARK  122  A    between atoms: _309  and  _312
REMARK  123  A    between atoms: _312  and  _313
REMARK  124  A    between atoms: _313  and  _314
REMARK  125  A    between atoms: _317  and  _319
REMARK  126  A    between atoms: _319  and  _320
REMARK  127  A    between atoms: _323  and  _325
REMARK  128  A    between atoms: _325  and  _326
REMARK  129  A    between atoms: _325  and  _328
REMARK  130  A    between atoms: _328  and  _329
REMARK  131  A    between atoms: _332  and  _334
REMARK  132  A    between atoms: _334  and  _335
REMARK  133  A    between atoms: _334  and  _337
REMARK  134  A    between atoms: _337  and  _338
REMARK  135  A    between atoms: _338  and  _339
REMARK  136  A    between atoms: _342  and  _344
REMARK  137  A    between atoms: _344  and  _345
REMARK  138  A    between atoms: _344  and  _347
REMARK  139  A    between atoms: _347  and  _348
REMARK  140  A    between atoms: _348  and  _349
REMARK  141  A    between atoms: _349  and  _350
REMARK  142  A    between atoms: _359  and  _361
REMARK  143  A    between atoms: _361  and  _362
REMARK  144  A    between atoms: _361  and  _364
REMARK  145  A    between atoms: _364  and  _365
REMARK  146  A    between atoms: _375  and  _377
REMARK  147  A    between atoms: _377  and  _378
REMARK  148  A    between atoms: _377  and  _380
REMARK  149  A    between atoms: _380  and  _381
REMARK  150  A    between atoms: _381  and  _382
REMARK  151  A    between atoms: _384  and  _386
REMARK  152  A    between atoms: _386  and  _387
REMARK  153  A    between atoms: _390  and  _392
REMARK  154  A    between atoms: _392  and  _393
REMARK  155  A    between atoms: _392  and  _395
REMARK  156  A    between atoms: _395  and  _396
REMARK  157  A    between atoms: _401  and  _403
REMARK  158  A    between atoms: _403  and  _404
REMARK  159  A    between atoms: _406  and  _408
REMARK  160  A    between atoms: _408  and  _409
REMARK  161  A    between atoms: _408  and  _411
REMARK  162  A    between atoms: _414  and  _416
REMARK  163  A    between atoms: _416  and  _417
REMARK  164  A    between atoms: _420  and  _422
REMARK  165  A    between atoms: _422  and  _423
REMARK  166  A    between atoms: _422  and  _425
REMARK  167  A    between atoms: _425  and  _426
REMARK  168  A    between atoms: _431  and  _433
REMARK  169  A    between atoms: _433  and  _434
REMARK  170  A    between atoms: _433  and  _436
REMARK  171  A    between atoms: _436  and  _437
REMARK  172  A    between atoms: _437  and  _438
REMARK  173  A    between atoms: _438  and  _439
REMARK  174  A    between atoms: _439  and  _440
REMARK  175  A    between atoms: _444  and  _446
REMARK  176  A    between atoms: _446  and  _447
REMARK  177  A    between atoms: _446  and  _449
REMARK  178  A    between atoms: _449  and  _450
REMARK  179  A    between atoms: _453  and  _455
REMARK  180  A    between atoms: _455  and  _456
REMARK  181  A    between atoms: _455  and  _458
REMARK  182  A    between atoms: _458  and  _459
REMARK  183  A    between atoms: _464  and  _466
REMARK  184  A    between atoms: _466  and  _467
REMARK  185  A    between atoms: _469  and  _471
REMARK  186  A    between atoms: _471  and  _472
REMARK  187  A    between atoms: _471  and  _474
REMARK  188  A    between atoms: _474  and  _475
REMARK  189  A    between atoms: _475  and  _476
REMARK  190  A    between atoms: _476  and  _477
REMARK  191  A    between atoms: _477  and  _478
REMARK  192  A    between atoms: _482  and  _484
REMARK  193  A    between atoms: _484  and  _485
REMARK  194  A    between atoms: _484  and  _487
REMARK  195  A    between atoms: _487  and  _488
REMARK  196  A    between atoms: _488  and  _489
REMARK  197  A    between atoms: _489  and  _490
REMARK  198  A    between atoms: _499  and  _501
REMARK  199  A    between atoms: _501  and  _502
REMARK  200  A    between atoms: _501  and  _504
REMARK  201  A    between atoms: _504  and  _505
REMARK  202  A    between atoms: _510  and  _511
REMARK  203  A    between atoms: _513  and  _515
REMARK  204  A    between atoms: _515  and  _516
REMARK  205  A    between atoms: _515  and  _518
REMARK  206  A    between atoms: _518  and  _519
REMARK  207  A    between atoms: _519  and  _520
REMARK  208  A    between atoms: _520  and  _521
REMARK  209  A    between atoms: _521  and  _522
REMARK  210  A    between atoms: _526  and  _528
REMARK  211  A    between atoms: _528  and  _529
REMARK  212  A    between atoms: _528  and  _531
REMARK  213  A    between atoms: _531  and  _532
REMARK  214  A    between atoms: _534  and  _536
REMARK  215  A    between atoms: _536  and  _537
REMARK  216  A    between atoms: _536  and  _539
REMARK  217  A    between atoms: _539  and  _540
REMARK  218  A    between atoms: _543  and  _545
REMARK  219  A    between atoms: _545  and  _546
REMARK  220  A    between atoms: _545  and  _548
REMARK  221  A    between atoms: _548  and  _549
REMARK  222  A    between atoms: _549  and  _550
REMARK  223  A    between atoms: _553  and  _555
REMARK  224  A    between atoms: _555  and  _556
REMARK  225  A    between atoms: _559  and  _561
REMARK  226  A    between atoms: _561  and  _562
REMARK  227  A    between atoms: _561  and  _564
REMARK  228  A    between atoms: _564  and  _565
REMARK  229  A    between atoms: _567  and  _569
REMARK  230  A    between atoms: _569  and  _570
REMARK  231  A    between atoms: _572  and  _574
REMARK  232  A    between atoms: _574  and  _575
REMARK  233  A    between atoms: _574  and  _577
REMARK  234  A    between atoms: _577  and  _578
REMARK  235  A    between atoms: _581  and  _583
REMARK  236  A    between atoms: _583  and  _584
REMARK  237  A    between atoms: _586  and  _588
REMARK  238  A    between atoms: _588  and  _589
REMARK  239  A    between atoms: _588  and  _591
REMARK  240  A    between atoms: _591  and  _592
REMARK  241  A    between atoms: _597  and  _599
REMARK  242  A    between atoms: _599  and  _600
REMARK  243  A    between atoms: _599  and  _602
REMARK  244  A    between atoms: _602  and  _603
REMARK  245  A    between atoms: _603  and  _604
REMARK  246  A    between atoms: _611  and  _612
REMARK  247  A    between atoms: _612  and  _628
REMARK  248  A    between atoms: _613  and  _615
REMARK  249  A    between atoms: _615  and  _616
REMARK  250  A    between atoms: _616  and  _617
REMARK  251  A    between atoms: _621  and  _623
REMARK  252  A    between atoms: _623  and  _624
REMARK  253  A    between atoms: _623  and  _631
REMARK  254  A    between atoms: _624  and  _625
REMARK  255  A    between atoms: _625  and  _626
REMARK  256  A    between atoms: _626  and  _627
REMARK  257  A    between atoms: _627  and  _628
REMARK  258  A    between atoms: _633  and  _635
REMARK  259  A    between atoms: _635  and  _636
REMARK  260  A    between atoms: _635  and  _638
REMARK  261  A    between atoms: _638  and  _639
REMARK  262  A    between atoms: _642  and  _644
REMARK  263  A    between atoms: _644  and  _645
REMARK  264  A    between atoms: _647  and  _649
REMARK  265  A    between atoms: _649  and  _650
REMARK  266  A    between atoms: _653  and  _655
REMARK  267  A    between atoms: _655  and  _656
REMARK  268  A    between atoms: _655  and  _658
REMARK  269  A    between atoms: _658  and  _659
REMARK  270  A    between atoms: _664  and  _665
REMARK                            x       y       z     vdW  Elec       q    Type
REMARK                         _______ _______ _______ _____ _____    ______ ____
ROOT
ATOM      1  O   HOH     1      25.528  27.815  31.815  0.00  0.00    +0.000 OA
ENDROOT
TORSDOF 0
REMARK  Name = ../refined-set-2016/4el0/4el0_pocket.pdb
REMARK  270 active torsions:
REMARK  status: ('A' for Active; 'I' for Inactive)
REMARK    1  A    between atoms: _1  and  _3
REMARK    2  A    between atoms: _3  and  _4
REMARK    3  A    between atoms: _3  and  _6
REMARK    4  A    between atoms: _6  and  _7
REMARK    5  A    between atoms: _12  and  _13
REMARK    6  A    between atoms: _15  and  _17
REMARK    7  A    between atoms: _17  and  _18
REMARK    8  A    between atoms: _17  and  _20
REMARK    9  A    between atoms: _20  and  _21
REMARK   10  A    between atoms: _21  and  _22
REMARK   11  A    between atoms: _25  and  _27
REMARK   12  A    between atoms: _27  and  _28
REMARK   13  A    between atoms: _27  and  _30
REMARK   14  A    between atoms: _30  and  _31
REMARK   15  A    between atoms: _36  and  _38
REMARK   16  A    between atoms: _38  and  _39
REMARK   17  A    between atoms: _41  and  _43
REMARK   18  A    between atoms: _43  and  _44
REMARK   19  A    between atoms: _46  and  _48
REMARK   20  A    between atoms: _48  and  _49
REMARK   21  A    between atoms: _48  and  _51
REMARK   22  A    between atoms: _51  and  _52
REMARK   23  A    between atoms: _55  and  _57
REMARK   24  A    between atoms: _57  and  _58
REMARK   25  A    between atoms: _60  and  _62
REMARK   26  A    between atoms: _62  and  _63
REMARK   27  A    between atoms: _62  and  _65
REMARK   28  A    between atoms: _66  and  _67
REMARK   29  A    between atoms: _67  and  _68
REMARK   30  A    between atoms: _77  and  _79
REMARK   31  A    between atoms: _79  and  _80
REMARK   32  A    between atoms: _79  and  _82
REMARK   33  A    between atoms: _82  and  _83
REMARK   34  A    between atoms: _86  and  _88
REMARK   35  A    between atoms: _88  and  _89
REMARK   36  A    between atoms: _92  and  _94
REMARK   37  A    between atoms: _94  and  _95
REMARK   38  A    between atoms: _94  and  _97
REMARK   39  A    between atoms: _97  and  _98
REMARK   40  A    between atoms: _104  and  _106
REMARK   41  A    between atoms: _106  and  _107
REMARK   42  A    between atoms: _106  and  _109
REMARK   43  A    between atoms: _109  and  _110
REMARK   44  A    between atoms: _115  and  _117
REMARK   45  A    between atoms: _117  and  _118
REMARK   46  A    between atoms: _117  and  _120
REMARK   47  A    between atoms: _120  and  _121
REMARK   48  A    between atoms: _124  and  _126
REMARK   49  A    between atoms: _126  and  _127
REMARK   50  A    between atoms: _126  and  _129
REMARK   51  A    between atoms: _129  and  _130
REMARK   52  A    between atoms: _135  and  _137
REMARK   53  A    between atoms: _137  and  _138
REMARK   54  A    between atoms: _137  and  _140
REMARK   55  A    between atoms: _140  and  _141
REMARK   56  A    between atoms: _147  and  _149
REMARK   57  A    between atoms: _149  and  _150
REMARK   58  A    between atoms: _149  and  _152
REMARK   59  A    between atoms: _152  and  _153
REMARK   60  A    between atoms: _159  and  _161
REMARK   61  A    between atoms: _161  and  _162
REMARK   62  A    between atoms: _161  and  _164
REMARK   63  A    between atoms: _164  and  _165
REMARK   64  A    between atoms: _165  and  _166
REMARK   65  A    between atoms: _169  and  _171
REMARK   66  A    between atoms: _171  and  _172
REMARK   67  A    between atoms: _171  and  _174
REMARK   68  A    between atoms: _174  and  _175
REMARK   69  A    between atoms: _175  and  _176
REMARK   70  A    between atoms: _176  and  _177
REMARK   71  A    between atoms: _186  and  _188
REMARK   72  A    between atoms: _188  and  _189
REMARK   73  A    between atoms: _188  and  _191
REMARK   74  A    between atoms: _191  and  _192
REMARK   75  A    between atoms: _192  and  _193
REMARK   76  A    between atoms: _196  and  _198
REMARK   77  A    between atoms: _198  and  _199
REMARK   78  A    between atoms: _198  and  _201
REMARK   79  A    between atoms: _201  and  _202
REMARK   80  A    between atoms: _207  and  _209
REMARK   81  A    between atoms: _209  and  _210
REMARK   82  A    between atoms: _209  and  _212
REMARK   83  A    between atoms: _212  and  _213
REMARK   84  A    between atoms: _216  and  _218
REMARK   85  A    between atoms: _218  and  _219
REMARK   86  A    between atoms: _218  and  _221
REMARK   87  A    between atoms: _221  and  _222
REMARK   88  A    between atoms: _225  and  _227
REMARK   89  A    between atoms: _227  and  _228
REMARK   90  A    between atoms: _227  and  _230
REMARK   91  A    between atoms: _230  and  _231
REMARK   92  A    between atoms: _236  and  _238
REMARK   93  A    between atoms: _238  and  _239
REMARK   94  A    between atoms: _238  and  _241
REMARK   95  A    between atoms: _241  and  _242
REMARK   96  A    between atoms: _247  and  _248
REMARK   97  A    between atoms: _250  and  _252
REMARK   98  A    between atoms: _252  and  _253
REMARK   99  A    between atoms: _252  and  _255
REMARK  100  A    between atoms: _255  and  _256
REMARK  101  A    between atoms: _259  and  _261
REMARK  102  A    between atoms: _261  and  _262
REMARK  103  A    between atoms: _261  and  _264
REMARK  104  A    between atoms: _264  and  _265
REMARK  105  A    between atoms: _270  and  _272
REMARK  106  A    between atoms: _272  and  _273
REMARK  107  A    between atoms: _272  and  _275
REMARK  108  A    between atoms: _275  and  _276
REMARK  109  A    between atoms: _281  and  _283
REMARK  110  A    between atoms: _283  and  _284
REMARK  111  A    between atoms: _283  and  _286
REMARK  112  A    between atoms: _286  and  _287
REMARK  113  A    between atoms: _290  and  _292
REMARK  114  A    between atoms: _292  and  _293
REMARK  115  A    between atoms: _292  and  _295
REMARK  116  A    between atoms: _298  and  _300
REMARK  117  A    between atoms: _300  and  _301
REMARK  118  A    between atoms: _300  and  _303
REMARK  119  A    between atoms: _303  and  _304
REMARK  120  A    between atoms: _307  and  _309
REMARK  121  A    between atoms: _309  and  _310
REMARK  122  A    between atoms: _309  and  _312
REMARK  123  A    between atoms: _312  and  _313
REMARK  124  A    between atoms: _313  and  _314
REMARK  125  A    between atoms: _317  and  _319
REMARK  126  A    between atoms: _319  and  _320
REMARK  127  A    between atoms: _323  and  _325
REMARK  128  A    between atoms: _325  and  _326
REMARK  129  A    between atoms: _325  and  _328
REMARK  130  A    between atoms: _328  and  _329
REMARK  131  A    between atoms: _332  and  _334
REMARK  132  A    between atoms: _334  and  _335
REMARK  133  A    between atoms: _334  and  _337
REMARK  134  A    between atoms: _337  and  _338
REMARK  135  A    between atoms: _338  and  _339
REMARK  136  A    between atoms: _342  and  _344
REMARK  137  A    between atoms: _344  and  _345
REMARK  138  A    between atoms: _344  and  _347
REMARK  139  A    between atoms: _347  and  _348
REMARK  140  A    between atoms: _348  and  _349
REMARK  141  A    between atoms: _349  and  _350
REMARK  142  A    between atoms: _359  and  _361
REMARK  143  A    between atoms: _361  and  _362
REMARK  144  A    between atoms: _361  and  _364
REMARK  145  A    between atoms: _364  and  _365
REMARK  146  A    between atoms: _375  and  _377
REMARK  147  A    between atoms: _377  and  _378
REMARK  148  A    between atoms: _377  and  _380
REMARK  149  A    between atoms: _380  and  _381
REMARK  150  A    between atoms: _381  and  _382
REMARK  151  A    between atoms: _384  and  _386
REMARK  152  A    between atoms: _386  and  _387
REMARK  153  A    between atoms: _390  and  _392
REMARK  154  A    between atoms: _392  and  _393
REMARK  155  A    between atoms: _392  and  _395
REMARK  156  A    between atoms: _395  and  _396
REMARK  157  A    between atoms: _401  and  _403
REMARK  158  A    between atoms: _403  and  _404
REMARK  159  A    between atoms: _406  and  _408
REMARK  160  A    between atoms: _408  and  _409
REMARK  161  A    between atoms: _408  and  _411
REMARK  162  A    between atoms: _414  and  _416
REMARK  163  A    between atoms: _416  and  _417
REMARK  164  A    between atoms: _420  and  _422
REMARK  165  A    between atoms: _422  and  _423
REMARK  166  A    between atoms: _422  and  _425
REMARK  167  A    between atoms: _425  and  _426
REMARK  168  A    between atoms: _431  and  _433
REMARK  169  A    between atoms: _433  and  _434
REMARK  170  A    between atoms: _433  and  _436
REMARK  171  A    between atoms: _436  and  _437
REMARK  172  A    between atoms: _437  and  _438
REMARK  173  A    between atoms: _438  and  _439
REMARK  174  A    between atoms: _439  and  _440
REMARK  175  A    between atoms: _444  and  _446
REMARK  176  A    between atoms: _446  and  _447
REMARK  177  A    between atoms: _446  and  _449
REMARK  178  A    between atoms: _449  and  _450
REMARK  179  A    between atoms: _453  and  _455
REMARK  180  A    between atoms: _455  and  _456
REMARK  181  A    between atoms: _455  and  _458
REMARK  182  A    between atoms: _458  and  _459
REMARK  183  A    between atoms: _464  and  _466
REMARK  184  A    between atoms: _466  and  _467
REMARK  185  A    between atoms: _469  and  _471
REMARK  186  A    between atoms: _471  and  _472
REMARK  187  A    between atoms: _471  and  _474
REMARK  188  A    between atoms: _474  and  _475
REMARK  189  A    between atoms: _475  and  _476
REMARK  190  A    between atoms: _476  and  _477
REMARK  191  A    between atoms: _477  and  _478
REMARK  192  A    between atoms: _482  and  _484
REMARK  193  A    between atoms: _484  and  _485
REMARK  194  A    between atoms: _484  and  _487
REMARK  195  A    between atoms: _487  and  _488
REMARK  196  A    between atoms: _488  and  _489
REMARK  197  A    between atoms: _489  and  _490
REMARK  198  A    between atoms: _499  and  _501
REMARK  199  A    between atoms: _501  and  _502
REMARK  200  A    between atoms: _501  and  _504
REMARK  201  A    between atoms: _504  and  _505
REMARK  202  A    between atoms: _510  and  _511
REMARK  203  A    between atoms: _513  and  _515
REMARK  204  A    between atoms: _515  and  _516
REMARK  205  A    between atoms: _515  and  _518
REMARK  206  A    between atoms: _518  and  _519
REMARK  207  A    between atoms: _519  and  _520
REMARK  208  A    between atoms: _520  and  _521
REMARK  209  A    between atoms: _521  and  _522
REMARK  210  A    between atoms: _526  and  _528
REMARK  211  A    between atoms: _528  and  _529
REMARK  212  A    between atoms: _528  and  _531
REMARK  213  A    between atoms: _531  and  _532
REMARK  214  A    between atoms: _534  and  _536
REMARK  215  A    between atoms: _536  and  _537
REMARK  216  A    between atoms: _536  and  _539
REMARK  217  A    between atoms: _539  and  _540
REMARK  218  A    between atoms: _543  and  _545
REMARK  219  A    between atoms: _545  and  _546
REMARK  220  A    between atoms: _545  and  _548
REMARK  221  A    between atoms: _548  and  _549
REMARK  222  A    between atoms: _549  and  _550
REMARK  223  A    between atoms: _553  and  _555
REMARK  224  A    between atoms: _555  and  _556
REMARK  225  A    between atoms: _559  and  _561
REMARK  226  A    between atoms: _561  and  _562
REMARK  227  A    between atoms: _561  and  _564
REMARK  228  A    between atoms: _564  and  _565
REMARK  229  A    between atoms: _567  and  _569
REMARK  230  A    between atoms: _569  and  _570
REMARK  231  A    between atoms: _572  and  _574
REMARK  232  A    between atoms: _574  and  _575
REMARK  233  A    between atoms: _574  and  _577
REMARK  234  A    between atoms: _577  and  _578
REMARK  235  A    between atoms: _581  and  _583
REMARK  236  A    between atoms: _583  and  _584
REMARK  237  A    between atoms: _586  and  _588
REMARK  238  A    between atoms: _588  and  _589
REMARK  239  A    between atoms: _588  and  _591
REMARK  240  A    between atoms: _591  and  _592
REMARK  241  A    between atoms: _597  and  _599
REMARK  242  A    between atoms: _599  and  _600
REMARK  243  A    between atoms: _599  and  _602
REMARK  244  A    between atoms: _602  and  _603
REMARK  245  A    between atoms: _603  and  _604
REMARK  246  A    between atoms: _611  and  _612
REMARK  247  A    between atoms: _612  and  _628
REMARK  248  A    between atoms: _613  and  _615
REMARK  249  A    between atoms: _615  and  _616
REMARK  250  A    between atoms: _616  and  _617
REMARK  251  A    between atoms: _621  and  _623
REMARK  252  A    between atoms: _623  and  _624
REMARK  253  A    between atoms: _623  and  _631
REMARK  254  A    between atoms: _624  and  _625
REMARK  255  A    between atoms: _625  and  _626
REMARK  256  A    between atoms: _626  and  _627
REMARK  257  A    between atoms: _627  and  _628
REMARK  258  A    between atoms: _633  and  _635
REMARK  259  A    between atoms: _635  and  _636
REMARK  260  A    between atoms: _635  and  _638
REMARK  261  A    between atoms: _638  and  _639
REMARK  262  A    between atoms: _642  and  _644
REMARK  263  A    between atoms: _644  and  _645
REMARK  264  A    between atoms: _647  and  _649
REMARK  265  A    between atoms: _649  and  _650
REMARK  266  A    between atoms: _653  and  _655
REMARK  267  A    between atoms: _655  and  _656
REMARK  268  A    between atoms: _655  and  _658
REMARK  269  A    between atoms: _658  and  _659
REMARK  270  A    between atoms: _664  and  _665
REMARK                            x       y       z     vdW  Elec       q    Type
REMARK                         _______ _______ _______ _____ _____    ______ ____
ROOT
ATOM      1  O   HOH     1      29.607  26.062  18.246  0.00  0.00    +0.000 OA
ENDROOT
TORSDOF 0
REMARK  Name = ../refined-set-2016/4el0/4el0_pocket.pdb
REMARK  270 active torsions:
REMARK  status: ('A' for Active; 'I' for Inactive)
REMARK    1  A    between atoms: _1  and  _3
REMARK    2  A    between atoms: _3  and  _4
REMARK    3  A    between atoms: _3  and  _6
REMARK    4  A    between atoms: _6  and  _7
REMARK    5  A    between atoms: _12  and  _13
REMARK    6  A    between atoms: _15  and  _17
REMARK    7  A    between atoms: _17  and  _18
REMARK    8  A    between atoms: _17  and  _20
REMARK    9  A    between atoms: _20  and  _21
REMARK   10  A    between atoms: _21  and  _22
REMARK   11  A    between atoms: _25  and  _27
REMARK   12  A    between atoms: _27  and  _28
REMARK   13  A    between atoms: _27  and  _30
REMARK   14  A    between atoms: _30  and  _31
REMARK   15  A    between atoms: _36  and  _38
REMARK   16  A    between atoms: _38  and  _39
REMARK   17  A    between atoms: _41  and  _43
REMARK   18  A    between atoms: _43  and  _44
REMARK   19  A    between atoms: _46  and  _48
REMARK   20  A    between atoms: _48  and  _49
REMARK   21  A    between atoms: _48  and  _51
REMARK   22  A    between atoms: _51  and  _52
REMARK   23  A    between atoms: _55  and  _57
REMARK   24  A    between atoms: _57  and  _58
REMARK   25  A    between atoms: _60  and  _62
REMARK   26  A    between atoms: _62  and  _63
REMARK   27  A    between atoms: _62  and  _65
REMARK   28  A    between atoms: _66  and  _67
REMARK   29  A    between atoms: _67  and  _68
REMARK   30  A    between atoms: _77  and  _79
REMARK   31  A    between atoms: _79  and  _80
REMARK   32  A    between atoms: _79  and  _82
REMARK   33  A    between atoms: _82  and  _83
REMARK   34  A    between atoms: _86  and  _88
REMARK   35  A    between atoms: _88  and  _89
REMARK   36  A    between atoms: _92  and  _94
REMARK   37  A    between atoms: _94  and  _95
REMARK   38  A    between atoms: _94  and  _97
REMARK   39  A    between atoms: _97  and  _98
REMARK   40  A    between atoms: _104  and  _106
REMARK   41  A    between atoms: _106  and  _107
REMARK   42  A    between atoms: _106  and  _109
REMARK   43  A    between atoms: _109  and  _110
REMARK   44  A    between atoms: _115  and  _117
REMARK   45  A    between atoms: _117  and  _118
REMARK   46  A    between atoms: _117  and  _120
REMARK   47  A    between atoms: _120  and  _121
REMARK   48  A    between atoms: _124  and  _126
REMARK   49  A    between atoms: _126  and  _127
REMARK   50  A    between atoms: _126  and  _129
REMARK   51  A    between atoms: _129  and  _130
REMARK   52  A    between atoms: _135  and  _137
REMARK   53  A    between atoms: _137  and  _138
REMARK   54  A    between atoms: _137  and  _140
REMARK   55  A    between atoms: _140  and  _141
REMARK   56  A    between atoms: _147  and  _149
REMARK   57  A    between atoms: _149  and  _150
REMARK   58  A    between atoms: _149  and  _152
REMARK   59  A    between atoms: _152  and  _153
REMARK   60  A    between atoms: _159  and  _161
REMARK   61  A    between atoms: _161  and  _162
REMARK   62  A    between atoms: _161  and  _164
REMARK   63  A    between atoms: _164  and  _165
REMARK   64  A    between atoms: _165  and  _166
REMARK   65  A    between atoms: _169  and  _171
REMARK   66  A    between atoms: _171  and  _172
REMARK   67  A    between atoms: _171  and  _174
REMARK   68  A    between atoms: _174  and  _175
REMARK   69  A    between atoms: _175  and  _176
REMARK   70  A    between atoms: _176  and  _177
REMARK   71  A    between atoms: _186  and  _188
REMARK   72  A    between atoms: _188  and  _189
REMARK   73  A    between atoms: _188  and  _191
REMARK   74  A    between atoms: _191  and  _192
REMARK   75  A    between atoms: _192  and  _193
REMARK   76  A    between atoms: _196  and  _198
REMARK   77  A    between atoms: _198  and  _199
REMARK   78  A    between atoms: _198  and  _201
REMARK   79  A    between atoms: _201  and  _202
REMARK   80  A    between atoms: _207  and  _209
REMARK   81  A    between atoms: _209  and  _210
REMARK   82  A    between atoms: _209  and  _212
REMARK   83  A    between atoms: _212  and  _213
REMARK   84  A    between atoms: _216  and  _218
REMARK   85  A    between atoms: _218  and  _219
REMARK   86  A    between atoms: _218  and  _221
REMARK   87  A    between atoms: _221  and  _222
REMARK   88  A    between atoms: _225  and  _227
REMARK   89  A    between atoms: _227  and  _228
REMARK   90  A    between atoms: _227  and  _230
REMARK   91  A    between atoms: _230  and  _231
REMARK   92  A    between atoms: _236  and  _238
REMARK   93  A    between atoms: _238  and  _239
REMARK   94  A    between atoms: _238  and  _241
REMARK   95  A    between atoms: _241  and  _242
REMARK   96  A    between atoms: _247  and  _248
REMARK   97  A    between atoms: _250  and  _252
REMARK   98  A    between atoms: _252  and  _253
REMARK   99  A    between atoms: _252  and  _255
REMARK  100  A    between atoms: _255  and  _256
REMARK  101  A    between atoms: _259  and  _261
REMARK  102  A    between atoms: _261  and  _262
REMARK  103  A    between atoms: _261  and  _264
REMARK  104  A    between atoms: _264  and  _265
REMARK  105  A    between atoms: _270  and  _272
REMARK  106  A    between atoms: _272  and  _273
REMARK  107  A    between atoms: _272  and  _275
REMARK  108  A    between atoms: _275  and  _276
REMARK  109  A    between atoms: _281  and  _283
REMARK  110  A    between atoms: _283  and  _284
REMARK  111  A    between atoms: _283  and  _286
REMARK  112  A    between atoms: _286  and  _287
REMARK  113  A    between atoms: _290  and  _292
REMARK  114  A    between atoms: _292  and  _293
REMARK  115  A    between atoms: _292  and  _295
REMARK  116  A    between atoms: _298  and  _300
REMARK  117  A    between atoms: _300  and  _301
REMARK  118  A    between atoms: _300  and  _303
REMARK  119  A    between atoms: _303  and  _304
REMARK  120  A    between atoms: _307  and  _309
REMARK  121  A    between atoms: _309  and  _310
REMARK  122  A    between atoms: _309  and  _312
REMARK  123  A    between atoms: _312  and  _313
REMARK  124  A    between atoms: _313  and  _314
REMARK  125  A    between atoms: _317  and  _319
REMARK  126  A    between atoms: _319  and  _320
REMARK  127  A    between atoms: _323  and  _325
REMARK  128  A    between atoms: _325  and  _326
REMARK  129  A    between atoms: _325  and  _328
REMARK  130  A    between atoms: _328  and  _329
REMARK  131  A    between atoms: _332  and  _334
REMARK  132  A    between atoms: _334  and  _335
REMARK  133  A    between atoms: _334  and  _337
REMARK  134  A    between atoms: _337  and  _338
REMARK  135  A    between atoms: _338  and  _339
REMARK  136  A    between atoms: _342  and  _344
REMARK  137  A    between atoms: _344  and  _345
REMARK  138  A    between atoms: _344  and  _347
REMARK  139  A    between atoms: _347  and  _348
REMARK  140  A    between atoms: _348  and  _349
REMARK  141  A    between atoms: _349  and  _350
REMARK  142  A    between atoms: _359  and  _361
REMARK  143  A    between atoms: _361  and  _362
REMARK  144  A    between atoms: _361  and  _364
REMARK  145  A    between atoms: _364  and  _365
REMARK  146  A    between atoms: _375  and  _377
REMARK  147  A    between atoms: _377  and  _378
REMARK  148  A    between atoms: _377  and  _380
REMARK  149  A    between atoms: _380  and  _381
REMARK  150  A    between atoms: _381  and  _382
REMARK  151  A    between atoms: _384  and  _386
REMARK  152  A    between atoms: _386  and  _387
REMARK  153  A    between atoms: _390  and  _392
REMARK  154  A    between atoms: _392  and  _393
REMARK  155  A    between atoms: _392  and  _395
REMARK  156  A    between atoms: _395  and  _396
REMARK  157  A    between atoms: _401  and  _403
REMARK  158  A    between atoms: _403  and  _404
REMARK  159  A    between atoms: _406  and  _408
REMARK  160  A    between atoms: _408  and  _409
REMARK  161  A    between atoms: _408  and  _411
REMARK  162  A    between atoms: _414  and  _416
REMARK  163  A    between atoms: _416  and  _417
REMARK  164  A    between atoms: _420  and  _422
REMARK  165  A    between atoms: _422  and  _423
REMARK  166  A    between atoms: _422  and  _425
REMARK  167  A    between atoms: _425  and  _426
REMARK  168  A    between atoms: _431  and  _433
REMARK  169  A    between atoms: _433  and  _434
REMARK  170  A    between atoms: _433  and  _436
REMARK  171  A    between atoms: _436  and  _437
REMARK  172  A    between atoms: _437  and  _438
REMARK  173  A    between atoms: _438  and  _439
REMARK  174  A    between atoms: _439  and  _440
REMARK  175  A    between atoms: _444  and  _446
REMARK  176  A    between atoms: _446  and  _447
REMARK  177  A    between atoms: _446  and  _449
REMARK  178  A    between atoms: _449  and  _450
REMARK  179  A    between atoms: _453  and  _455
REMARK  180  A    between atoms: _455  and  _456
REMARK  181  A    between atoms: _455  and  _458
REMARK  182  A    between atoms: _458  and  _459
REMARK  183  A    between atoms: _464  and  _466
REMARK  184  A    between atoms: _466  and  _467
REMARK  185  A    between atoms: _469  and  _471
REMARK  186  A    between atoms: _471  and  _472
REMARK  187  A    between atoms: _471  and  _474
REMARK  188  A    between atoms: _474  and  _475
REMARK  189  A    between atoms: _475  and  _476
REMARK  190  A    between atoms: _476  and  _477
REMARK  191  A    between atoms: _477  and  _478
REMARK  192  A    between atoms: _482  and  _484
REMARK  193  A    between atoms: _484  and  _485
REMARK  194  A    between atoms: _484  and  _487
REMARK  195  A    between atoms: _487  and  _488
REMARK  196  A    between atoms: _488  and  _489
REMARK  197  A    between atoms: _489  and  _490
REMARK  198  A    between atoms: _499  and  _501
REMARK  199  A    between atoms: _501  and  _502
REMARK  200  A    between atoms: _501  and  _504
REMARK  201  A    between atoms: _504  and  _505
REMARK  202  A    between atoms: _510  and  _511
REMARK  203  A    between atoms: _513  and  _515
REMARK  204  A    between atoms: _515  and  _516
REMARK  205  A    between atoms: _515  and  _518
REMARK  206  A    between atoms: _518  and  _519
REMARK  207  A    between atoms: _519  and  _520
REMARK  208  A    between atoms: _520  and  _521
REMARK  209  A    between atoms: _521  and  _522
REMARK  210  A    between atoms: _526  and  _528
REMARK  211  A    between atoms: _528  and  _529
REMARK  212  A    between atoms: _528  and  _531
REMARK  213  A    between atoms: _531  and  _532
REMARK  214  A    between atoms: _534  and  _536
REMARK  215  A    between atoms: _536  and  _537
REMARK  216  A    between atoms: _536  and  _539
REMARK  217  A    between atoms: _539  and  _540
REMARK  218  A    between atoms: _543  and  _545
REMARK  219  A    between atoms: _545  and  _546
REMARK  220  A    between atoms: _545  and  _548
REMARK  221  A    between atoms: _548  and  _549
REMARK  222  A    between atoms: _549  and  _550
REMARK  223  A    between atoms: _553  and  _555
REMARK  224  A    between atoms: _555  and  _556
REMARK  225  A    between atoms: _559  and  _561
REMARK  226  A    between atoms: _561  and  _562
REMARK  227  A    between atoms: _561  and  _564
REMARK  228  A    between atoms: _564  and  _565
REMARK  229  A    between atoms: _567  and  _569
REMARK  230  A    between atoms: _569  and  _570
REMARK  231  A    between atoms: _572  and  _574
REMARK  232  A    between atoms: _574  and  _575
REMARK  233  A    between atoms: _574  and  _577
REMARK  234  A    between atoms: _577  and  _578
REMARK  235  A    between atoms: _581  and  _583
REMARK  236  A    between atoms: _583  and  _584
REMARK  237  A    between atoms: _586  and  _588
REMARK  238  A    between atoms: _588  and  _589
REMARK  239  A    between atoms: _588  and  _591
REMARK  240  A    between atoms: _591  and  _592
REMARK  241  A    between atoms: _597  and  _599
REMARK  242  A    between atoms: _599  and  _600
REMARK  243  A    between atoms: _599  and  _602
REMARK  244  A    between atoms: _602  and  _603
REMARK  245  A    between atoms: _603  and  _604
REMARK  246  A    between atoms: _611  and  _612
REMARK  247  A    between atoms: _612  and  _628
REMARK  248  A    between atoms: _613  and  _615
REMARK  249  A    between atoms: _615  and  _616
REMARK  250  A    between atoms: _616  and  _617
REMARK  251  A    between atoms: _621  and  _623
REMARK  252  A    between atoms: _623  and  _624
REMARK  253  A    between atoms: _623  and  _631
REMARK  254  A    between atoms: _624  and  _625
REMARK  255  A    between atoms: _625  and  _626
REMARK  256  A    between atoms: _626  and  _627
REMARK  257  A    between atoms: _627  and  _628
REMARK  258  A    between atoms: _633  and  _635
REMARK  259  A    between atoms: _635  and  _636
REMARK  260  A    between atoms: _635  and  _638
REMARK  261  A    between atoms: _638  and  _639
REMARK  262  A    between atoms: _642  and  _644
REMARK  263  A    between atoms: _644  and  _645
REMARK  264  A    between atoms: _647  and  _649
REMARK  265  A    between atoms: _649  and  _650
REMARK  266  A    between atoms: _653  and  _655
REMARK  267  A    between atoms: _655  and  _656
REMARK  268  A    between atoms: _655  and  _658
REMARK  269  A    between atoms: _658  and  _659
REMARK  270  A    between atoms: _664  and  _665
REMARK                            x       y       z     vdW  Elec       q    Type
REMARK                         _______ _______ _______ _____ _____    ______ ____
ROOT
ATOM      1  O   HOH     1      29.669  23.223  18.743  0.00  0.00    +0.000 OA
ENDROOT
TORSDOF 0
REMARK  Name = ../refined-set-2016/4el0/4el0_pocket.pdb
REMARK  270 active torsions:
REMARK  status: ('A' for Active; 'I' for Inactive)
REMARK    1  A    between atoms: _1  and  _3
REMARK    2  A    between atoms: _3  and  _4
REMARK    3  A    between atoms: _3  and  _6
REMARK    4  A    between atoms: _6  and  _7
REMARK    5  A    between atoms: _12  and  _13
REMARK    6  A    between atoms: _15  and  _17
REMARK    7  A    between atoms: _17  and  _18
REMARK    8  A    between atoms: _17  and  _20
REMARK    9  A    between atoms: _20  and  _21
REMARK   10  A    between atoms: _21  and  _22
REMARK   11  A    between atoms: _25  and  _27
REMARK   12  A    between atoms: _27  and  _28
REMARK   13  A    between atoms: _27  and  _30
REMARK   14  A    between atoms: _30  and  _31
REMARK   15  A    between atoms: _36  and  _38
REMARK   16  A    between atoms: _38  and  _39
REMARK   17  A    between atoms: _41  and  _43
REMARK   18  A    between atoms: _43  and  _44
REMARK   19  A    between atoms: _46  and  _48
REMARK   20  A    between atoms: _48  and  _49
REMARK   21  A    between atoms: _48  and  _51
REMARK   22  A    between atoms: _51  and  _52
REMARK   23  A    between atoms: _55  and  _57
REMARK   24  A    between atoms: _57  and  _58
REMARK   25  A    between atoms: _60  and  _62
REMARK   26  A    between atoms: _62  and  _63
REMARK   27  A    between atoms: _62  and  _65
REMARK   28  A    between atoms: _66  and  _67
REMARK   29  A    between atoms: _67  and  _68
REMARK   30  A    between atoms: _77  and  _79
REMARK   31  A    between atoms: _79  and  _80
REMARK   32  A    between atoms: _79  and  _82
REMARK   33  A    between atoms: _82  and  _83
REMARK   34  A    between atoms: _86  and  _88
REMARK   35  A    between atoms: _88  and  _89
REMARK   36  A    between atoms: _92  and  _94
REMARK   37  A    between atoms: _94  and  _95
REMARK   38  A    between atoms: _94  and  _97
REMARK   39  A    between atoms: _97  and  _98
REMARK   40  A    between atoms: _104  and  _106
REMARK   41  A    between atoms: _106  and  _107
REMARK   42  A    between atoms: _106  and  _109
REMARK   43  A    between atoms: _109  and  _110
REMARK   44  A    between atoms: _115  and  _117
REMARK   45  A    between atoms: _117  and  _118
REMARK   46  A    between atoms: _117  and  _120
REMARK   47  A    between atoms: _120  and  _121
REMARK   48  A    between atoms: _124  and  _126
REMARK   49  A    between atoms: _126  and  _127
REMARK   50  A    between atoms: _126  and  _129
REMARK   51  A    between atoms: _129  and  _130
REMARK   52  A    between atoms: _135  and  _137
REMARK   53  A    between atoms: _137  and  _138
REMARK   54  A    between atoms: _137  and  _140
REMARK   55  A    between atoms: _140  and  _141
REMARK   56  A    between atoms: _147  and  _149
REMARK   57  A    between atoms: _149  and  _150
REMARK   58  A    between atoms: _149  and  _152
REMARK   59  A    between atoms: _152  and  _153
REMARK   60  A    between atoms: _159  and  _161
REMARK   61  A    between atoms: _161  and  _162
REMARK   62  A    between atoms: _161  and  _164
REMARK   63  A    between atoms: _164  and  _165
REMARK   64  A    between atoms: _165  and  _166
REMARK   65  A    between atoms: _169  and  _171
REMARK   66  A    between atoms: _171  and  _172
REMARK   67  A    between atoms: _171  and  _174
REMARK   68  A    between atoms: _174  and  _175
REMARK   69  A    between atoms: _175  and  _176
REMARK   70  A    between atoms: _176  and  _177
REMARK   71  A    between atoms: _186  and  _188
REMARK   72  A    between atoms: _188  and  _189
REMARK   73  A    between atoms: _188  and  _191
REMARK   74  A    between atoms: _191  and  _192
REMARK   75  A    between atoms: _192  and  _193
REMARK   76  A    between atoms: _196  and  _198
REMARK   77  A    between atoms: _198  and  _199
REMARK   78  A    between atoms: _198  and  _201
REMARK   79  A    between atoms: _201  and  _202
REMARK   80  A    between atoms: _207  and  _209
REMARK   81  A    between atoms: _209  and  _210
REMARK   82  A    between atoms: _209  and  _212
REMARK   83  A    between atoms: _212  and  _213
REMARK   84  A    between atoms: _216  and  _218
REMARK   85  A    between atoms: _218  and  _219
REMARK   86  A    between atoms: _218  and  _221
REMARK   87  A    between atoms: _221  and  _222
REMARK   88  A    between atoms: _225  and  _227
REMARK   89  A    between atoms: _227  and  _228
REMARK   90  A    between atoms: _227  and  _230
REMARK   91  A    between atoms: _230  and  _231
REMARK   92  A    between atoms: _236  and  _238
REMARK   93  A    between atoms: _238  and  _239
REMARK   94  A    between atoms: _238  and  _241
REMARK   95  A    between atoms: _241  and  _242
REMARK   96  A    between atoms: _247  and  _248
REMARK   97  A    between atoms: _250  and  _252
REMARK   98  A    between atoms: _252  and  _253
REMARK   99  A    between atoms: _252  and  _255
REMARK  100  A    between atoms: _255  and  _256
REMARK  101  A    between atoms: _259  and  _261
REMARK  102  A    between atoms: _261  and  _262
REMARK  103  A    between atoms: _261  and  _264
REMARK  104  A    between atoms: _264  and  _265
REMARK  105  A    between atoms: _270  and  _272
REMARK  106  A    between atoms: _272  and  _273
REMARK  107  A    between atoms: _272  and  _275
REMARK  108  A    between atoms: _275  and  _276
REMARK  109  A    between atoms: _281  and  _283
REMARK  110  A    between atoms: _283  and  _284
REMARK  111  A    between atoms: _283  and  _286
REMARK  112  A    between atoms: _286  and  _287
REMARK  113  A    between atoms: _290  and  _292
REMARK  114  A    between atoms: _292  and  _293
REMARK  115  A    between atoms: _292  and  _295
REMARK  116  A    between atoms: _298  and  _300
REMARK  117  A    between atoms: _300  and  _301
REMARK  118  A    between atoms: _300  and  _303
REMARK  119  A    between atoms: _303  and  _304
REMARK  120  A    between atoms: _307  and  _309
REMARK  121  A    between atoms: _309  and  _310
REMARK  122  A    between atoms: _309  and  _312
REMARK  123  A    between atoms: _312  and  _313
REMARK  124  A    between atoms: _313  and  _314
REMARK  125  A    between atoms: _317  and  _319
REMARK  126  A    between atoms: _319  and  _320
REMARK  127  A    between atoms: _323  and  _325
REMARK  128  A    between atoms: _325  and  _326
REMARK  129  A    between atoms: _325  and  _328
REMARK  130  A    between atoms: _328  and  _329
REMARK  131  A    between atoms: _332  and  _334
REMARK  132  A    between atoms: _334  and  _335
REMARK  133  A    between atoms: _334  and  _337
REMARK  134  A    between atoms: _337  and  _338
REMARK  135  A    between atoms: _338  and  _339
REMARK  136  A    between atoms: _342  and  _344
REMARK  137  A    between atoms: _344  and  _345
REMARK  138  A    between atoms: _344  and  _347
REMARK  139  A    between atoms: _347  and  _348
REMARK  140  A    between atoms: _348  and  _349
REMARK  141  A    between atoms: _349  and  _350
REMARK  142  A    between atoms: _359  and  _361
REMARK  143  A    between atoms: _361  and  _362
REMARK  144  A    between atoms: _361  and  _364
REMARK  145  A    between atoms: _364  and  _365
REMARK  146  A    between atoms: _375  and  _377
REMARK  147  A    between atoms: _377  and  _378
REMARK  148  A    between atoms: _377  and  _380
REMARK  149  A    between atoms: _380  and  _381
REMARK  150  A    between atoms: _381  and  _382
REMARK  151  A    between atoms: _384  and  _386
REMARK  152  A    between atoms: _386  and  _387
REMARK  153  A    between atoms: _390  and  _392
REMARK  154  A    between atoms: _392  and  _393
REMARK  155  A    between atoms: _392  and  _395
REMARK  156  A    between atoms: _395  and  _396
REMARK  157  A    between atoms: _401  and  _403
REMARK  158  A    between atoms: _403  and  _404
REMARK  159  A    between atoms: _406  and  _408
REMARK  160  A    between atoms: _408  and  _409
REMARK  161  A    between atoms: _408  and  _411
REMARK  162  A    between atoms: _414  and  _416
REMARK  163  A    between atoms: _416  and  _417
REMARK  164  A    between atoms: _420  and  _422
REMARK  165  A    between atoms: _422  and  _423
REMARK  166  A    between atoms: _422  and  _425
REMARK  167  A    between atoms: _425  and  _426
REMARK  168  A    between atoms: _431  and  _433
REMARK  169  A    between atoms: _433  and  _434
REMARK  170  A    between atoms: _433  and  _436
REMARK  171  A    between atoms: _436  and  _437
REMARK  172  A    between atoms: _437  and  _438
REMARK  173  A    between atoms: _438  and  _439
REMARK  174  A    between atoms: _439  and  _440
REMARK  175  A    between atoms: _444  and  _446
REMARK  176  A    between atoms: _446  and  _447
REMARK  177  A    between atoms: _446  and  _449
REMARK  178  A    between atoms: _449  and  _450
REMARK  179  A    between atoms: _453  and  _455
REMARK  180  A    between atoms: _455  and  _456
REMARK  181  A    between atoms: _455  and  _458
REMARK  182  A    between atoms: _458  and  _459
REMARK  183  A    between atoms: _464  and  _466
REMARK  184  A    between atoms: _466  and  _467
REMARK  185  A    between atoms: _469  and  _471
REMARK  186  A    between atoms: _471  and  _472
REMARK  187  A    between atoms: _471  and  _474
REMARK  188  A    between atoms: _474  and  _475
REMARK  189  A    between atoms: _475  and  _476
REMARK  190  A    between atoms: _476  and  _477
REMARK  191  A    between atoms: _477  and  _478
REMARK  192  A    between atoms: _482  and  _484
REMARK  193  A    between atoms: _484  and  _485
REMARK  194  A    between atoms: _484  and  _487
REMARK  195  A    between atoms: _487  and  _488
REMARK  196  A    between atoms: _488  and  _489
REMARK  197  A    between atoms: _489  and  _490
REMARK  198  A    between atoms: _499  and  _501
REMARK  199  A    between atoms: _501  and  _502
REMARK  200  A    between atoms: _501  and  _504
REMARK  201  A    between atoms: _504  and  _505
REMARK  202  A    between atoms: _510  and  _511
REMARK  203  A    between atoms: _513  and  _515
REMARK  204  A    between atoms: _515  and  _516
REMARK  205  A    between atoms: _515  and  _518
REMARK  206  A    between atoms: _518  and  _519
REMARK  207  A    between atoms: _519  and  _520
REMARK  208  A    between atoms: _520  and  _521
REMARK  209  A    between atoms: _521  and  _522
REMARK  210  A    between atoms: _526  and  _528
REMARK  211  A    between atoms: _528  and  _529
REMARK  212  A    between atoms: _528  and  _531
REMARK  213  A    between atoms: _531  and  _532
REMARK  214  A    between atoms: _534  and  _536
REMARK  215  A    between atoms: _536  and  _537
REMARK  216  A    between atoms: _536  and  _539
REMARK  217  A    between atoms: _539  and  _540
REMARK  218  A    between atoms: _543  and  _545
REMARK  219  A    between atoms: _545  and  _546
REMARK  220  A    between atoms: _545  and  _548
REMARK  221  A    between atoms: _548  and  _549
REMARK  222  A    between atoms: _549  and  _550
REMARK  223  A    between atoms: _553  and  _555
REMARK  224  A    between atoms: _555  and  _556
REMARK  225  A    between atoms: _559  and  _561
REMARK  226  A    between atoms: _561  and  _562
REMARK  227  A    between atoms: _561  and  _564
REMARK  228  A    between atoms: _564  and  _565
REMARK  229  A    between atoms: _567  and  _569
REMARK  230  A    between atoms: _569  and  _570
REMARK  231  A    between atoms: _572  and  _574
REMARK  232  A    between atoms: _574  and  _575
REMARK  233  A    between atoms: _574  and  _577
REMARK  234  A    between atoms: _577  and  _578
REMARK  235  A    between atoms: _581  and  _583
REMARK  236  A    between atoms: _583  and  _584
REMARK  237  A    between atoms: _586  and  _588
REMARK  238  A    between atoms: _588  and  _589
REMARK  239  A    between atoms: _588  and  _591
REMARK  240  A    between atoms: _591  and  _592
REMARK  241  A    between atoms: _597  and  _599
REMARK  242  A    between atoms: _599  and  _600
REMARK  243  A    between atoms: _599  and  _602
REMARK  244  A    between atoms: _602  and  _603
REMARK  245  A    between atoms: _603  and  _604
REMARK  246  A    between atoms: _611  and  _612
REMARK  247  A    between atoms: _612  and  _628
REMARK  248  A    between atoms: _613  and  _615
REMARK  249  A    between atoms: _615  and  _616
REMARK  250  A    between atoms: _616  and  _617
REMARK  251  A    between atoms: _621  and  _623
REMARK  252  A    between atoms: _623  and  _624
REMARK  253  A    between atoms: _623  and  _631
REMARK  254  A    between atoms: _624  and  _625
REMARK  255  A    between atoms: _625  and  _626
REMARK  256  A    between atoms: _626  and  _627
REMARK  257  A    between atoms: _627  and  _628
REMARK  258  A    between atoms: _633  and  _635
REMARK  259  A    between atoms: _635  and  _636
REMARK  260  A    between atoms: _635  and  _638
REMARK  261  A    between atoms: _638  and  _639
REMARK  262  A    between atoms: _642  and  _644
REMARK  263  A    between atoms: _644  and  _645
REMARK  264  A    between atoms: _647  and  _649
REMARK  265  A    between atoms: _649  and  _650
REMARK  266  A    between atoms: _653  and  _655
REMARK  267  A    between atoms: _655  and  _656
REMARK  268  A    between atoms: _655  and  _658
REMARK  269  A    between atoms: _658  and  _659
REMARK  270  A    between atoms: _664  and  _665
REMARK                            x       y       z     vdW  Elec       q    Type
REMARK                         _______ _______ _______ _____ _____    ______ ____
ROOT
ATOM      1  O   HOH     1      26.936  19.249  28.957  0.00  0.00    +0.000 OA
ENDROOT
TORSDOF 0
REMARK  Name = ../refined-set-2016/4el0/4el0_pocket.pdb
REMARK  270 active torsions:
REMARK  status: ('A' for Active; 'I' for Inactive)
REMARK    1  A    between atoms: _1  and  _3
REMARK    2  A    between atoms: _3  and  _4
REMARK    3  A    between atoms: _3  and  _6
REMARK    4  A    between atoms: _6  and  _7
REMARK    5  A    between atoms: _12  and  _13
REMARK    6  A    between atoms: _15  and  _17
REMARK    7  A    between atoms: _17  and  _18
REMARK    8  A    between atoms: _17  and  _20
REMARK    9  A    between atoms: _20  and  _21
REMARK   10  A    between atoms: _21  and  _22
REMARK   11  A    between atoms: _25  and  _27
REMARK   12  A    between atoms: _27  and  _28
REMARK   13  A    between atoms: _27  and  _30
REMARK   14  A    between atoms: _30  and  _31
REMARK   15  A    between atoms: _36  and  _38
REMARK   16  A    between atoms: _38  and  _39
REMARK   17  A    between atoms: _41  and  _43
REMARK   18  A    between atoms: _43  and  _44
REMARK   19  A    between atoms: _46  and  _48
REMARK   20  A    between atoms: _48  and  _49
REMARK   21  A    between atoms: _48  and  _51
REMARK   22  A    between atoms: _51  and  _52
REMARK   23  A    between atoms: _55  and  _57
REMARK   24  A    between atoms: _57  and  _58
REMARK   25  A    between atoms: _60  and  _62
REMARK   26  A    between atoms: _62  and  _63
REMARK   27  A    between atoms: _62  and  _65
REMARK   28  A    between atoms: _66  and  _67
REMARK   29  A    between atoms: _67  and  _68
REMARK   30  A    between atoms: _77  and  _79
REMARK   31  A    between atoms: _79  and  _80
REMARK   32  A    between atoms: _79  and  _82
REMARK   33  A    between atoms: _82  and  _83
REMARK   34  A    between atoms: _86  and  _88
REMARK   35  A    between atoms: _88  and  _89
REMARK   36  A    between atoms: _92  and  _94
REMARK   37  A    between atoms: _94  and  _95
REMARK   38  A    between atoms: _94  and  _97
REMARK   39  A    between atoms: _97  and  _98
REMARK   40  A    between atoms: _104  and  _106
REMARK   41  A    between atoms: _106  and  _107
REMARK   42  A    between atoms: _106  and  _109
REMARK   43  A    between atoms: _109  and  _110
REMARK   44  A    between atoms: _115  and  _117
REMARK   45  A    between atoms: _117  and  _118
REMARK   46  A    between atoms: _117  and  _120
REMARK   47  A    between atoms: _120  and  _121
REMARK   48  A    between atoms: _124  and  _126
REMARK   49  A    between atoms: _126  and  _127
REMARK   50  A    between atoms: _126  and  _129
REMARK   51  A    between atoms: _129  and  _130
REMARK   52  A    between atoms: _135  and  _137
REMARK   53  A    between atoms: _137  and  _138
REMARK   54  A    between atoms: _137  and  _140
REMARK   55  A    between atoms: _140  and  _141
REMARK   56  A    between atoms: _147  and  _149
REMARK   57  A    between atoms: _149  and  _150
REMARK   58  A    between atoms: _149  and  _152
REMARK   59  A    between atoms: _152  and  _153
REMARK   60  A    between atoms: _159  and  _161
REMARK   61  A    between atoms: _161  and  _162
REMARK   62  A    between atoms: _161  and  _164
REMARK   63  A    between atoms: _164  and  _165
REMARK   64  A    between atoms: _165  and  _166
REMARK   65  A    between atoms: _169  and  _171
REMARK   66  A    between atoms: _171  and  _172
REMARK   67  A    between atoms: _171  and  _174
REMARK   68  A    between atoms: _174  and  _175
REMARK   69  A    between atoms: _175  and  _176
REMARK   70  A    between atoms: _176  and  _177
REMARK   71  A    between atoms: _186  and  _188
REMARK   72  A    between atoms: _188  and  _189
REMARK   73  A    between atoms: _188  and  _191
REMARK   74  A    between atoms: _191  and  _192
REMARK   75  A    between atoms: _192  and  _193
REMARK   76  A    between atoms: _196  and  _198
REMARK   77  A    between atoms: _198  and  _199
REMARK   78  A    between atoms: _198  and  _201
REMARK   79  A    between atoms: _201  and  _202
REMARK   80  A    between atoms: _207  and  _209
REMARK   81  A    between atoms: _209  and  _210
REMARK   82  A    between atoms: _209  and  _212
REMARK   83  A    between atoms: _212  and  _213
REMARK   84  A    between atoms: _216  and  _218
REMARK   85  A    between atoms: _218  and  _219
REMARK   86  A    between atoms: _218  and  _221
REMARK   87  A    between atoms: _221  and  _222
REMARK   88  A    between atoms: _225  and  _227
REMARK   89  A    between atoms: _227  and  _228
REMARK   90  A    between atoms: _227  and  _230
REMARK   91  A    between atoms: _230  and  _231
REMARK   92  A    between atoms: _236  and  _238
REMARK   93  A    between atoms: _238  and  _239
REMARK   94  A    between atoms: _238  and  _241
REMARK   95  A    between atoms: _241  and  _242
REMARK   96  A    between atoms: _247  and  _248
REMARK   97  A    between atoms: _250  and  _252
REMARK   98  A    between atoms: _252  and  _253
REMARK   99  A    between atoms: _252  and  _255
REMARK  100  A    between atoms: _255  and  _256
REMARK  101  A    between atoms: _259  and  _261
REMARK  102  A    between atoms: _261  and  _262
REMARK  103  A    between atoms: _261  and  _264
REMARK  104  A    between atoms: _264  and  _265
REMARK  105  A    between atoms: _270  and  _272
REMARK  106  A    between atoms: _272  and  _273
REMARK  107  A    between atoms: _272  and  _275
REMARK  108  A    between atoms: _275  and  _276
REMARK  109  A    between atoms: _281  and  _283
REMARK  110  A    between atoms: _283  and  _284
REMARK  111  A    between atoms: _283  and  _286
REMARK  112  A    between atoms: _286  and  _287
REMARK  113  A    between atoms: _290  and  _292
REMARK  114  A    between atoms: _292  and  _293
REMARK  115  A    between atoms: _292  and  _295
REMARK  116  A    between atoms: _298  and  _300
REMARK  117  A    between atoms: _300  and  _301
REMARK  118  A    between atoms: _300  and  _303
REMARK  119  A    between atoms: _303  and  _304
REMARK  120  A    between atoms: _307  and  _309
REMARK  121  A    between atoms: _309  and  _310
REMARK  122  A    between atoms: _309  and  _312
REMARK  123  A    between atoms: _312  and  _313
REMARK  124  A    between atoms: _313  and  _314
REMARK  125  A    between atoms: _317  and  _319
REMARK  126  A    between atoms: _319  and  _320
REMARK  127  A    between atoms: _323  and  _325
REMARK  128  A    between atoms: _325  and  _326
REMARK  129  A    between atoms: _325  and  _328
REMARK  130  A    between atoms: _328  and  _329
REMARK  131  A    between atoms: _332  and  _334
REMARK  132  A    between atoms: _334  and  _335
REMARK  133  A    between atoms: _334  and  _337
REMARK  134  A    between atoms: _337  and  _338
REMARK  135  A    between atoms: _338  and  _339
REMARK  136  A    between atoms: _342  and  _344
REMARK  137  A    between atoms: _344  and  _345
REMARK  138  A    between atoms: _344  and  _347
REMARK  139  A    between atoms: _347  and  _348
REMARK  140  A    between atoms: _348  and  _349
REMARK  141  A    between atoms: _349  and  _350
REMARK  142  A    between atoms: _359  and  _361
REMARK  143  A    between atoms: _361  and  _362
REMARK  144  A    between atoms: _361  and  _364
REMARK  145  A    between atoms: _364  and  _365
REMARK  146  A    between atoms: _375  and  _377
REMARK  147  A    between atoms: _377  and  _378
REMARK  148  A    between atoms: _377  and  _380
REMARK  149  A    between atoms: _380  and  _381
REMARK  150  A    between atoms: _381  and  _382
REMARK  151  A    between atoms: _384  and  _386
REMARK  152  A    between atoms: _386  and  _387
REMARK  153  A    between atoms: _390  and  _392
REMARK  154  A    between atoms: _392  and  _393
REMARK  155  A    between atoms: _392  and  _395
REMARK  156  A    between atoms: _395  and  _396
REMARK  157  A    between atoms: _401  and  _403
REMARK  158  A    between atoms: _403  and  _404
REMARK  159  A    between atoms: _406  and  _408
REMARK  160  A    between atoms: _408  and  _409
REMARK  161  A    between atoms: _408  and  _411
REMARK  162  A    between atoms: _414  and  _416
REMARK  163  A    between atoms: _416  and  _417
REMARK  164  A    between atoms: _420  and  _422
REMARK  165  A    between atoms: _422  and  _423
REMARK  166  A    between atoms: _422  and  _425
REMARK  167  A    between atoms: _425  and  _426
REMARK  168  A    between atoms: _431  and  _433
REMARK  169  A    between atoms: _433  and  _434
REMARK  170  A    between atoms: _433  and  _436
REMARK  171  A    between atoms: _436  and  _437
REMARK  172  A    between atoms: _437  and  _438
REMARK  173  A    between atoms: _438  and  _439
REMARK  174  A    between atoms: _439  and  _440
REMARK  175  A    between atoms: _444  and  _446
REMARK  176  A    between atoms: _446  and  _447
REMARK  177  A    between atoms: _446  and  _449
REMARK  178  A    between atoms: _449  and  _450
REMARK  179  A    between atoms: _453  and  _455
REMARK  180  A    between atoms: _455  and  _456
REMARK  181  A    between atoms: _455  and  _458
REMARK  182  A    between atoms: _458  and  _459
REMARK  183  A    between atoms: _464  and  _466
REMARK  184  A    between atoms: _466  and  _467
REMARK  185  A    between atoms: _469  and  _471
REMARK  186  A    between atoms: _471  and  _472
REMARK  187  A    between atoms: _471  and  _474
REMARK  188  A    between atoms: _474  and  _475
REMARK  189  A    between atoms: _475  and  _476
REMARK  190  A    between atoms: _476  and  _477
REMARK  191  A    between atoms: _477  and  _478
REMARK  192  A    between atoms: _482  and  _484
REMARK  193  A    between atoms: _484  and  _485
REMARK  194  A    between atoms: _484  and  _487
REMARK  195  A    between atoms: _487  and  _488
REMARK  196  A    between atoms: _488  and  _489
REMARK  197  A    between atoms: _489  and  _490
REMARK  198  A    between atoms: _499  and  _501
REMARK  199  A    between atoms: _501  and  _502
REMARK  200  A    between atoms: _501  and  _504
REMARK  201  A    between atoms: _504  and  _505
REMARK  202  A    between atoms: _510  and  _511
REMARK  203  A    between atoms: _513  and  _515
REMARK  204  A    between atoms: _515  and  _516
REMARK  205  A    between atoms: _515  and  _518
REMARK  206  A    between atoms: _518  and  _519
REMARK  207  A    between atoms: _519  and  _520
REMARK  208  A    between atoms: _520  and  _521
REMARK  209  A    between atoms: _521  and  _522
REMARK  210  A    between atoms: _526  and  _528
REMARK  211  A    between atoms: _528  and  _529
REMARK  212  A    between atoms: _528  and  _531
REMARK  213  A    between atoms: _531  and  _532
REMARK  214  A    between atoms: _534  and  _536
REMARK  215  A    between atoms: _536  and  _537
REMARK  216  A    between atoms: _536  and  _539
REMARK  217  A    between atoms: _539  and  _540
REMARK  218  A    between atoms: _543  and  _545
REMARK  219  A    between atoms: _545  and  _546
REMARK  220  A    between atoms: _545  and  _548
REMARK  221  A    between atoms: _548  and  _549
REMARK  222  A    between atoms: _549  and  _550
REMARK  223  A    between atoms: _553  and  _555
REMARK  224  A    between atoms: _555  and  _556
REMARK  225  A    between atoms: _559  and  _561
REMARK  226  A    between atoms: _561  and  _562
REMARK  227  A    between atoms: _561  and  _564
REMARK  228  A    between atoms: _564  and  _565
REMARK  229  A    between atoms: _567  and  _569
REMARK  230  A    between atoms: _569  and  _570
REMARK  231  A    between atoms: _572  and  _574
REMARK  232  A    between atoms: _574  and  _575
REMARK  233  A    between atoms: _574  and  _577
REMARK  234  A    between atoms: _577  and  _578
REMARK  235  A    between atoms: _581  and  _583
REMARK  236  A    between atoms: _583  and  _584
REMARK  237  A    between atoms: _586  and  _588
REMARK  238  A    between atoms: _588  and  _589
REMARK  239  A    between atoms: _588  and  _591
REMARK  240  A    between atoms: _591  and  _592
REMARK  241  A    between atoms: _597  and  _599
REMARK  242  A    between atoms: _599  and  _600
REMARK  243  A    between atoms: _599  and  _602
REMARK  244  A    between atoms: _602  and  _603
REMARK  245  A    between atoms: _603  and  _604
REMARK  246  A    between atoms: _611  and  _612
REMARK  247  A    between atoms: _612  and  _628
REMARK  248  A    between atoms: _613  and  _615
REMARK  249  A    between atoms: _615  and  _616
REMARK  250  A    between atoms: _616  and  _617
REMARK  251  A    between atoms: _621  and  _623
REMARK  252  A    between atoms: _623  and  _624
REMARK  253  A    between atoms: _623  and  _631
REMARK  254  A    between atoms: _624  and  _625
REMARK  255  A    between atoms: _625  and  _626
REMARK  256  A    between atoms: _626  and  _627
REMARK  257  A    between atoms: _627  and  _628
REMARK  258  A    between atoms: _633  and  _635
REMARK  259  A    between atoms: _635  and  _636
REMARK  260  A    between atoms: _635  and  _638
REMARK  261  A    between atoms: _638  and  _639
REMARK  262  A    between atoms: _642  and  _644
REMARK  263  A    between atoms: _644  and  _645
REMARK  264  A    between atoms: _647  and  _649
REMARK  265  A    between atoms: _649  and  _650
REMARK  266  A    between atoms: _653  and  _655
REMARK  267  A    between atoms: _655  and  _656
REMARK  268  A    between atoms: _655  and  _658
REMARK  269  A    between atoms: _658  and  _659
REMARK  270  A    between atoms: _664  and  _665
REMARK                            x       y       z     vdW  Elec       q    Type
REMARK                         _______ _______ _______ _____ _____    ______ ____
ROOT
ATOM      1  O   HOH     1      29.231  21.724  26.331  0.00  0.00    +0.000 OA
ENDROOT
TORSDOF 0
REMARK  Name = ../refined-set-2016/4el0/4el0_pocket.pdb
REMARK  270 active torsions:
REMARK  status: ('A' for Active; 'I' for Inactive)
REMARK    1  A    between atoms: _1  and  _3
REMARK    2  A    between atoms: _3  and  _4
REMARK    3  A    between atoms: _3  and  _6
REMARK    4  A    between atoms: _6  and  _7
REMARK    5  A    between atoms: _12  and  _13
REMARK    6  A    between atoms: _15  and  _17
REMARK    7  A    between atoms: _17  and  _18
REMARK    8  A    between atoms: _17  and  _20
REMARK    9  A    between atoms: _20  and  _21
REMARK   10  A    between atoms: _21  and  _22
REMARK   11  A    between atoms: _25  and  _27
REMARK   12  A    between atoms: _27  and  _28
REMARK   13  A    between atoms: _27  and  _30
REMARK   14  A    between atoms: _30  and  _31
REMARK   15  A    between atoms: _36  and  _38
REMARK   16  A    between atoms: _38  and  _39
REMARK   17  A    between atoms: _41  and  _43
REMARK   18  A    between atoms: _43  and  _44
REMARK   19  A    between atoms: _46  and  _48
REMARK   20  A    between atoms: _48  and  _49
REMARK   21  A    between atoms: _48  and  _51
REMARK   22  A    between atoms: _51  and  _52
REMARK   23  A    between atoms: _55  and  _57
REMARK   24  A    between atoms: _57  and  _58
REMARK   25  A    between atoms: _60  and  _62
REMARK   26  A    between atoms: _62  and  _63
REMARK   27  A    between atoms: _62  and  _65
REMARK   28  A    between atoms: _66  and  _67
REMARK   29  A    between atoms: _67  and  _68
REMARK   30  A    between atoms: _77  and  _79
REMARK   31  A    between atoms: _79  and  _80
REMARK   32  A    between atoms: _79  and  _82
REMARK   33  A    between atoms: _82  and  _83
REMARK   34  A    between atoms: _86  and  _88
REMARK   35  A    between atoms: _88  and  _89
REMARK   36  A    between atoms: _92  and  _94
REMARK   37  A    between atoms: _94  and  _95
REMARK   38  A    between atoms: _94  and  _97
REMARK   39  A    between atoms: _97  and  _98
REMARK   40  A    between atoms: _104  and  _106
REMARK   41  A    between atoms: _106  and  _107
REMARK   42  A    between atoms: _106  and  _109
REMARK   43  A    between atoms: _109  and  _110
REMARK   44  A    between atoms: _115  and  _117
REMARK   45  A    between atoms: _117  and  _118
REMARK   46  A    between atoms: _117  and  _120
REMARK   47  A    between atoms: _120  and  _121
REMARK   48  A    between atoms: _124  and  _126
REMARK   49  A    between atoms: _126  and  _127
REMARK   50  A    between atoms: _126  and  _129
REMARK   51  A    between atoms: _129  and  _130
REMARK   52  A    between atoms: _135  and  _137
REMARK   53  A    between atoms: _137  and  _138
REMARK   54  A    between atoms: _137  and  _140
REMARK   55  A    between atoms: _140  and  _141
REMARK   56  A    between atoms: _147  and  _149
REMARK   57  A    between atoms: _149  and  _150
REMARK   58  A    between atoms: _149  and  _152
REMARK   59  A    between atoms: _152  and  _153
REMARK   60  A    between atoms: _159  and  _161
REMARK   61  A    between atoms: _161  and  _162
REMARK   62  A    between atoms: _161  and  _164
REMARK   63  A    between atoms: _164  and  _165
REMARK   64  A    between atoms: _165  and  _166
REMARK   65  A    between atoms: _169  and  _171
REMARK   66  A    between atoms: _171  and  _172
REMARK   67  A    between atoms: _171  and  _174
REMARK   68  A    between atoms: _174  and  _175
REMARK   69  A    between atoms: _175  and  _176
REMARK   70  A    between atoms: _176  and  _177
REMARK   71  A    between atoms: _186  and  _188
REMARK   72  A    between atoms: _188  and  _189
REMARK   73  A    between atoms: _188  and  _191
REMARK   74  A    between atoms: _191  and  _192
REMARK   75  A    between atoms: _192  and  _193
REMARK   76  A    between atoms: _196  and  _198
REMARK   77  A    between atoms: _198  and  _199
REMARK   78  A    between atoms: _198  and  _201
REMARK   79  A    between atoms: _201  and  _202
REMARK   80  A    between atoms: _207  and  _209
REMARK   81  A    between atoms: _209  and  _210
REMARK   82  A    between atoms: _209  and  _212
REMARK   83  A    between atoms: _212  and  _213
REMARK   84  A    between atoms: _216  and  _218
REMARK   85  A    between atoms: _218  and  _219
REMARK   86  A    between atoms: _218  and  _221
REMARK   87  A    between atoms: _221  and  _222
REMARK   88  A    between atoms: _225  and  _227
REMARK   89  A    between atoms: _227  and  _228
REMARK   90  A    between atoms: _227  and  _230
REMARK   91  A    between atoms: _230  and  _231
REMARK   92  A    between atoms: _236  and  _238
REMARK   93  A    between atoms: _238  and  _239
REMARK   94  A    between atoms: _238  and  _241
REMARK   95  A    between atoms: _241  and  _242
REMARK   96  A    between atoms: _247  and  _248
REMARK   97  A    between atoms: _250  and  _252
REMARK   98  A    between atoms: _252  and  _253
REMARK   99  A    between atoms: _252  and  _255
REMARK  100  A    between atoms: _255  and  _256
REMARK  101  A    between atoms: _259  and  _261
REMARK  102  A    between atoms: _261  and  _262
REMARK  103  A    between atoms: _261  and  _264
REMARK  104  A    between atoms: _264  and  _265
REMARK  105  A    between atoms: _270  and  _272
REMARK  106  A    between atoms: _272  and  _273
REMARK  107  A    between atoms: _272  and  _275
REMARK  108  A    between atoms: _275  and  _276
REMARK  109  A    between atoms: _281  and  _283
REMARK  110  A    between atoms: _283  and  _284
REMARK  111  A    between atoms: _283  and  _286
REMARK  112  A    between atoms: _286  and  _287
REMARK  113  A    between atoms: _290  and  _292
REMARK  114  A    between atoms: _292  and  _293
REMARK  115  A    between atoms: _292  and  _295
REMARK  116  A    between atoms: _298  and  _300
REMARK  117  A    between atoms: _300  and  _301
REMARK  118  A    between atoms: _300  and  _303
REMARK  119  A    between atoms: _303  and  _304
REMARK  120  A    between atoms: _307  and  _309
REMARK  121  A    between atoms: _309  and  _310
REMARK  122  A    between atoms: _309  and  _312
REMARK  123  A    between atoms: _312  and  _313
REMARK  124  A    between atoms: _313  and  _314
REMARK  125  A    between atoms: _317  and  _319
REMARK  126  A    between atoms: _319  and  _320
REMARK  127  A    between atoms: _323  and  _325
REMARK  128  A    between atoms: _325  and  _326
REMARK  129  A    between atoms: _325  and  _328
REMARK  130  A    between atoms: _328  and  _329
REMARK  131  A    between atoms: _332  and  _334
REMARK  132  A    between atoms: _334  and  _335
REMARK  133  A    between atoms: _334  and  _337
REMARK  134  A    between atoms: _337  and  _338
REMARK  135  A    between atoms: _338  and  _339
REMARK  136  A    between atoms: _342  and  _344
REMARK  137  A    between atoms: _344  and  _345
REMARK  138  A    between atoms: _344  and  _347
REMARK  139  A    between atoms: _347  and  _348
REMARK  140  A    between atoms: _348  and  _349
REMARK  141  A    between atoms: _349  and  _350
REMARK  142  A    between atoms: _359  and  _361
REMARK  143  A    between atoms: _361  and  _362
REMARK  144  A    between atoms: _361  and  _364
REMARK  145  A    between atoms: _364  and  _365
REMARK  146  A    between atoms: _375  and  _377
REMARK  147  A    between atoms: _377  and  _378
REMARK  148  A    between atoms: _377  and  _380
REMARK  149  A    between atoms: _380  and  _381
REMARK  150  A    between atoms: _381  and  _382
REMARK  151  A    between atoms: _384  and  _386
REMARK  152  A    between atoms: _386  and  _387
REMARK  153  A    between atoms: _390  and  _392
REMARK  154  A    between atoms: _392  and  _393
REMARK  155  A    between atoms: _392  and  _395
REMARK  156  A    between atoms: _395  and  _396
REMARK  157  A    between atoms: _401  and  _403
REMARK  158  A    between atoms: _403  and  _404
REMARK  159  A    between atoms: _406  and  _408
REMARK  160  A    between atoms: _408  and  _409
REMARK  161  A    between atoms: _408  and  _411
REMARK  162  A    between atoms: _414  and  _416
REMARK  163  A    between atoms: _416  and  _417
REMARK  164  A    between atoms: _420  and  _422
REMARK  165  A    between atoms: _422  and  _423
REMARK  166  A    between atoms: _422  and  _425
REMARK  167  A    between atoms: _425  and  _426
REMARK  168  A    between atoms: _431  and  _433
REMARK  169  A    between atoms: _433  and  _434
REMARK  170  A    between atoms: _433  and  _436
REMARK  171  A    between atoms: _436  and  _437
REMARK  172  A    between atoms: _437  and  _438
REMARK  173  A    between atoms: _438  and  _439
REMARK  174  A    between atoms: _439  and  _440
REMARK  175  A    between atoms: _444  and  _446
REMARK  176  A    between atoms: _446  and  _447
REMARK  177  A    between atoms: _446  and  _449
REMARK  178  A    between atoms: _449  and  _450
REMARK  179  A    between atoms: _453  and  _455
REMARK  180  A    between atoms: _455  and  _456
REMARK  181  A    between atoms: _455  and  _458
REMARK  182  A    between atoms: _458  and  _459
REMARK  183  A    between atoms: _464  and  _466
REMARK  184  A    between atoms: _466  and  _467
REMARK  185  A    between atoms: _469  and  _471
REMARK  186  A    between atoms: _471  and  _472
REMARK  187  A    between atoms: _471  and  _474
REMARK  188  A    between atoms: _474  and  _475
REMARK  189  A    between atoms: _475  and  _476
REMARK  190  A    between atoms: _476  and  _477
REMARK  191  A    between atoms: _477  and  _478
REMARK  192  A    between atoms: _482  and  _484
REMARK  193  A    between atoms: _484  and  _485
REMARK  194  A    between atoms: _484  and  _487
REMARK  195  A    between atoms: _487  and  _488
REMARK  196  A    between atoms: _488  and  _489
REMARK  197  A    between atoms: _489  and  _490
REMARK  198  A    between atoms: _499  and  _501
REMARK  199  A    between atoms: _501  and  _502
REMARK  200  A    between atoms: _501  and  _504
REMARK  201  A    between atoms: _504  and  _505
REMARK  202  A    between atoms: _510  and  _511
REMARK  203  A    between atoms: _513  and  _515
REMARK  204  A    between atoms: _515  and  _516
REMARK  205  A    between atoms: _515  and  _518
REMARK  206  A    between atoms: _518  and  _519
REMARK  207  A    between atoms: _519  and  _520
REMARK  208  A    between atoms: _520  and  _521
REMARK  209  A    between atoms: _521  and  _522
REMARK  210  A    between atoms: _526  and  _528
REMARK  211  A    between atoms: _528  and  _529
REMARK  212  A    between atoms: _528  and  _531
REMARK  213  A    between atoms: _531  and  _532
REMARK  214  A    between atoms: _534  and  _536
REMARK  215  A    between atoms: _536  and  _537
REMARK  216  A    between atoms: _536  and  _539
REMARK  217  A    between atoms: _539  and  _540
REMARK  218  A    between atoms: _543  and  _545
REMARK  219  A    between atoms: _545  and  _546
REMARK  220  A    between atoms: _545  and  _548
REMARK  221  A    between atoms: _548  and  _549
REMARK  222  A    between atoms: _549  and  _550
REMARK  223  A    between atoms: _553  and  _555
REMARK  224  A    between atoms: _555  and  _556
REMARK  225  A    between atoms: _559  and  _561
REMARK  226  A    between atoms: _561  and  _562
REMARK  227  A    between atoms: _561  and  _564
REMARK  228  A    between atoms: _564  and  _565
REMARK  229  A    between atoms: _567  and  _569
REMARK  230  A    between atoms: _569  and  _570
REMARK  231  A    between atoms: _572  and  _574
REMARK  232  A    between atoms: _574  and  _575
REMARK  233  A    between atoms: _574  and  _577
REMARK  234  A    between atoms: _577  and  _578
REMARK  235  A    between atoms: _581  and  _583
REMARK  236  A    between atoms: _583  and  _584
REMARK  237  A    between atoms: _586  and  _588
REMARK  238  A    between atoms: _588  and  _589
REMARK  239  A    between atoms: _588  and  _591
REMARK  240  A    between atoms: _591  and  _592
REMARK  241  A    between atoms: _597  and  _599
REMARK  242  A    between atoms: _599  and  _600
REMARK  243  A    between atoms: _599  and  _602
REMARK  244  A    between atoms: _602  and  _603
REMARK  245  A    between atoms: _603  and  _604
REMARK  246  A    between atoms: _611  and  _612
REMARK  247  A    between atoms: _612  and  _628
REMARK  248  A    between atoms: _613  and  _615
REMARK  249  A    between atoms: _615  and  _616
REMARK  250  A    between atoms: _616  and  _617
REMARK  251  A    between atoms: _621  and  _623
REMARK  252  A    between atoms: _623  and  _624
REMARK  253  A    between atoms: _623  and  _631
REMARK  254  A    between atoms: _624  and  _625
REMARK  255  A    between atoms: _625  and  _626
REMARK  256  A    between atoms: _626  and  _627
REMARK  257  A    between atoms: _627  and  _628
REMARK  258  A    between atoms: _633  and  _635
REMARK  259  A    between atoms: _635  and  _636
REMARK  260  A    between atoms: _635  and  _638
REMARK  261  A    between atoms: _638  and  _639
REMARK  262  A    between atoms: _642  and  _644
REMARK  263  A    between atoms: _644  and  _645
REMARK  264  A    between atoms: _647  and  _649
REMARK  265  A    between atoms: _649  and  _650
REMARK  266  A    between atoms: _653  and  _655
REMARK  267  A    between atoms: _655  and  _656
REMARK  268  A    between atoms: _655  and  _658
REMARK  269  A    between atoms: _658  and  _659
REMARK  270  A    between atoms: _664  and  _665
REMARK                            x       y       z     vdW  Elec       q    Type
REMARK                         _______ _______ _______ _____ _____    ______ ____
ROOT
ATOM      1  O   HOH     1      41.168  29.406  38.253  0.00  0.00    +0.000 OA
ENDROOT
TORSDOF 0
REMARK  Name = ../refined-set-2016/4el0/4el0_pocket.pdb
REMARK  270 active torsions:
REMARK  status: ('A' for Active; 'I' for Inactive)
REMARK    1  A    between atoms: _1  and  _3
REMARK    2  A    between atoms: _3  and  _4
REMARK    3  A    between atoms: _3  and  _6
REMARK    4  A    between atoms: _6  and  _7
REMARK    5  A    between atoms: _12  and  _13
REMARK    6  A    between atoms: _15  and  _17
REMARK    7  A    between atoms: _17  and  _18
REMARK    8  A    between atoms: _17  and  _20
REMARK    9  A    between atoms: _20  and  _21
REMARK   10  A    between atoms: _21  and  _22
REMARK   11  A    between atoms: _25  and  _27
REMARK   12  A    between atoms: _27  and  _28
REMARK   13  A    between atoms: _27  and  _30
REMARK   14  A    between atoms: _30  and  _31
REMARK   15  A    between atoms: _36  and  _38
REMARK   16  A    between atoms: _38  and  _39
REMARK   17  A    between atoms: _41  and  _43
REMARK   18  A    between atoms: _43  and  _44
REMARK   19  A    between atoms: _46  and  _48
REMARK   20  A    between atoms: _48  and  _49
REMARK   21  A    between atoms: _48  and  _51
REMARK   22  A    between atoms: _51  and  _52
REMARK   23  A    between atoms: _55  and  _57
REMARK   24  A    between atoms: _57  and  _58
REMARK   25  A    between atoms: _60  and  _62
REMARK   26  A    between atoms: _62  and  _63
REMARK   27  A    between atoms: _62  and  _65
REMARK   28  A    between atoms: _66  and  _67
REMARK   29  A    between atoms: _67  and  _68
REMARK   30  A    between atoms: _77  and  _79
REMARK   31  A    between atoms: _79  and  _80
REMARK   32  A    between atoms: _79  and  _82
REMARK   33  A    between atoms: _82  and  _83
REMARK   34  A    between atoms: _86  and  _88
REMARK   35  A    between atoms: _88  and  _89
REMARK   36  A    between atoms: _92  and  _94
REMARK   37  A    between atoms: _94  and  _95
REMARK   38  A    between atoms: _94  and  _97
REMARK   39  A    between atoms: _97  and  _98
REMARK   40  A    between atoms: _104  and  _106
REMARK   41  A    between atoms: _106  and  _107
REMARK   42  A    between atoms: _106  and  _109
REMARK   43  A    between atoms: _109  and  _110
REMARK   44  A    between atoms: _115  and  _117
REMARK   45  A    between atoms: _117  and  _118
REMARK   46  A    between atoms: _117  and  _120
REMARK   47  A    between atoms: _120  and  _121
REMARK   48  A    between atoms: _124  and  _126
REMARK   49  A    between atoms: _126  and  _127
REMARK   50  A    between atoms: _126  and  _129
REMARK   51  A    between atoms: _129  and  _130
REMARK   52  A    between atoms: _135  and  _137
REMARK   53  A    between atoms: _137  and  _138
REMARK   54  A    between atoms: _137  and  _140
REMARK   55  A    between atoms: _140  and  _141
REMARK   56  A    between atoms: _147  and  _149
REMARK   57  A    between atoms: _149  and  _150
REMARK   58  A    between atoms: _149  and  _152
REMARK   59  A    between atoms: _152  and  _153
REMARK   60  A    between atoms: _159  and  _161
REMARK   61  A    between atoms: _161  and  _162
REMARK   62  A    between atoms: _161  and  _164
REMARK   63  A    between atoms: _164  and  _165
REMARK   64  A    between atoms: _165  and  _166
REMARK   65  A    between atoms: _169  and  _171
REMARK   66  A    between atoms: _171  and  _172
REMARK   67  A    between atoms: _171  and  _174
REMARK   68  A    between atoms: _174  and  _175
REMARK   69  A    between atoms: _175  and  _176
REMARK   70  A    between atoms: _176  and  _177
REMARK   71  A    between atoms: _186  and  _188
REMARK   72  A    between atoms: _188  and  _189
REMARK   73  A    between atoms: _188  and  _191
REMARK   74  A    between atoms: _191  and  _192
REMARK   75  A    between atoms: _192  and  _193
REMARK   76  A    between atoms: _196  and  _198
REMARK   77  A    between atoms: _198  and  _199
REMARK   78  A    between atoms: _198  and  _201
REMARK   79  A    between atoms: _201  and  _202
REMARK   80  A    between atoms: _207  and  _209
REMARK   81  A    between atoms: _209  and  _210
REMARK   82  A    between atoms: _209  and  _212
REMARK   83  A    between atoms: _212  and  _213
REMARK   84  A    between atoms: _216  and  _218
REMARK   85  A    between atoms: _218  and  _219
REMARK   86  A    between atoms: _218  and  _221
REMARK   87  A    between atoms: _221  and  _222
REMARK   88  A    between atoms: _225  and  _227
REMARK   89  A    between atoms: _227  and  _228
REMARK   90  A    between atoms: _227  and  _230
REMARK   91  A    between atoms: _230  and  _231
REMARK   92  A    between atoms: _236  and  _238
REMARK   93  A    between atoms: _238  and  _239
REMARK   94  A    between atoms: _238  and  _241
REMARK   95  A    between atoms: _241  and  _242
REMARK   96  A    between atoms: _247  and  _248
REMARK   97  A    between atoms: _250  and  _252
REMARK   98  A    between atoms: _252  and  _253
REMARK   99  A    between atoms: _252  and  _255
REMARK  100  A    between atoms: _255  and  _256
REMARK  101  A    between atoms: _259  and  _261
REMARK  102  A    between atoms: _261  and  _262
REMARK  103  A    between atoms: _261  and  _264
REMARK  104  A    between atoms: _264  and  _265
REMARK  105  A    between atoms: _270  and  _272
REMARK  106  A    between atoms: _272  and  _273
REMARK  107  A    between atoms: _272  and  _275
REMARK  108  A    between atoms: _275  and  _276
REMARK  109  A    between atoms: _281  and  _283
REMARK  110  A    between atoms: _283  and  _284
REMARK  111  A    between atoms: _283  and  _286
REMARK  112  A    between atoms: _286  and  _287
REMARK  113  A    between atoms: _290  and  _292
REMARK  114  A    between atoms: _292  and  _293
REMARK  115  A    between atoms: _292  and  _295
REMARK  116  A    between atoms: _298  and  _300
REMARK  117  A    between atoms: _300  and  _301
REMARK  118  A    between atoms: _300  and  _303
REMARK  119  A    between atoms: _303  and  _304
REMARK  120  A    between atoms: _307  and  _309
REMARK  121  A    between atoms: _309  and  _310
REMARK  122  A    between atoms: _309  and  _312
REMARK  123  A    between atoms: _312  and  _313
REMARK  124  A    between atoms: _313  and  _314
REMARK  125  A    between atoms: _317  and  _319
REMARK  126  A    between atoms: _319  and  _320
REMARK  127  A    between atoms: _323  and  _325
REMARK  128  A    between atoms: _325  and  _326
REMARK  129  A    between atoms: _325  and  _328
REMARK  130  A    between atoms: _328  and  _329
REMARK  131  A    between atoms: _332  and  _334
REMARK  132  A    between atoms: _334  and  _335
REMARK  133  A    between atoms: _334  and  _337
REMARK  134  A    between atoms: _337  and  _338
REMARK  135  A    between atoms: _338  and  _339
REMARK  136  A    between atoms: _342  and  _344
REMARK  137  A    between atoms: _344  and  _345
REMARK  138  A    between atoms: _344  and  _347
REMARK  139  A    between atoms: _347  and  _348
REMARK  140  A    between atoms: _348  and  _349
REMARK  141  A    between atoms: _349  and  _350
REMARK  142  A    between atoms: _359  and  _361
REMARK  143  A    between atoms: _361  and  _362
REMARK  144  A    between atoms: _361  and  _364
REMARK  145  A    between atoms: _364  and  _365
REMARK  146  A    between atoms: _375  and  _377
REMARK  147  A    between atoms: _377  and  _378
REMARK  148  A    between atoms: _377  and  _380
REMARK  149  A    between atoms: _380  and  _381
REMARK  150  A    between atoms: _381  and  _382
REMARK  151  A    between atoms: _384  and  _386
REMARK  152  A    between atoms: _386  and  _387
REMARK  153  A    between atoms: _390  and  _392
REMARK  154  A    between atoms: _392  and  _393
REMARK  155  A    between atoms: _392  and  _395
REMARK  156  A    between atoms: _395  and  _396
REMARK  157  A    between atoms: _401  and  _403
REMARK  158  A    between atoms: _403  and  _404
REMARK  159  A    between atoms: _406  and  _408
REMARK  160  A    between atoms: _408  and  _409
REMARK  161  A    between atoms: _408  and  _411
REMARK  162  A    between atoms: _414  and  _416
REMARK  163  A    between atoms: _416  and  _417
REMARK  164  A    between atoms: _420  and  _422
REMARK  165  A    between atoms: _422  and  _423
REMARK  166  A    between atoms: _422  and  _425
REMARK  167  A    between atoms: _425  and  _426
REMARK  168  A    between atoms: _431  and  _433
REMARK  169  A    between atoms: _433  and  _434
REMARK  170  A    between atoms: _433  and  _436
REMARK  171  A    between atoms: _436  and  _437
REMARK  172  A    between atoms: _437  and  _438
REMARK  173  A    between atoms: _438  and  _439
REMARK  174  A    between atoms: _439  and  _440
REMARK  175  A    between atoms: _444  and  _446
REMARK  176  A    between atoms: _446  and  _447
REMARK  177  A    between atoms: _446  and  _449
REMARK  178  A    between atoms: _449  and  _450
REMARK  179  A    between atoms: _453  and  _455
REMARK  180  A    between atoms: _455  and  _456
REMARK  181  A    between atoms: _455  and  _458
REMARK  182  A    between atoms: _458  and  _459
REMARK  183  A    between atoms: _464  and  _466
REMARK  184  A    between atoms: _466  and  _467
REMARK  185  A    between atoms: _469  and  _471
REMARK  186  A    between atoms: _471  and  _472
REMARK  187  A    between atoms: _471  and  _474
REMARK  188  A    between atoms: _474  and  _475
REMARK  189  A    between atoms: _475  and  _476
REMARK  190  A    between atoms: _476  and  _477
REMARK  191  A    between atoms: _477  and  _478
REMARK  192  A    between atoms: _482  and  _484
REMARK  193  A    between atoms: _484  and  _485
REMARK  194  A    between atoms: _484  and  _487
REMARK  195  A    between atoms: _487  and  _488
REMARK  196  A    between atoms: _488  and  _489
REMARK  197  A    between atoms: _489  and  _490
REMARK  198  A    between atoms: _499  and  _501
REMARK  199  A    between atoms: _501  and  _502
REMARK  200  A    between atoms: _501  and  _504
REMARK  201  A    between atoms: _504  and  _505
REMARK  202  A    between atoms: _510  and  _511
REMARK  203  A    between atoms: _513  and  _515
REMARK  204  A    between atoms: _515  and  _516
REMARK  205  A    between atoms: _515  and  _518
REMARK  206  A    between atoms: _518  and  _519
REMARK  207  A    between atoms: _519  and  _520
REMARK  208  A    between atoms: _520  and  _521
REMARK  209  A    between atoms: _521  and  _522
REMARK  210  A    between atoms: _526  and  _528
REMARK  211  A    between atoms: _528  and  _529
REMARK  212  A    between atoms: _528  and  _531
REMARK  213  A    between atoms: _531  and  _532
REMARK  214  A    between atoms: _534  and  _536
REMARK  215  A    between atoms: _536  and  _537
REMARK  216  A    between atoms: _536  and  _539
REMARK  217  A    between atoms: _539  and  _540
REMARK  218  A    between atoms: _543  and  _545
REMARK  219  A    between atoms: _545  and  _546
REMARK  220  A    between atoms: _545  and  _548
REMARK  221  A    between atoms: _548  and  _549
REMARK  222  A    between atoms: _549  and  _550
REMARK  223  A    between atoms: _553  and  _555
REMARK  224  A    between atoms: _555  and  _556
REMARK  225  A    between atoms: _559  and  _561
REMARK  226  A    between atoms: _561  and  _562
REMARK  227  A    between atoms: _561  and  _564
REMARK  228  A    between atoms: _564  and  _565
REMARK  229  A    between atoms: _567  and  _569
REMARK  230  A    between atoms: _569  and  _570
REMARK  231  A    between atoms: _572  and  _574
REMARK  232  A    between atoms: _574  and  _575
REMARK  233  A    between atoms: _574  and  _577
REMARK  234  A    between atoms: _577  and  _578
REMARK  235  A    between atoms: _581  and  _583
REMARK  236  A    between atoms: _583  and  _584
REMARK  237  A    between atoms: _586  and  _588
REMARK  238  A    between atoms: _588  and  _589
REMARK  239  A    between atoms: _588  and  _591
REMARK  240  A    between atoms: _591  and  _592
REMARK  241  A    between atoms: _597  and  _599
REMARK  242  A    between atoms: _599  and  _600
REMARK  243  A    between atoms: _599  and  _602
REMARK  244  A    between atoms: _602  and  _603
REMARK  245  A    between atoms: _603  and  _604
REMARK  246  A    between atoms: _611  and  _612
REMARK  247  A    between atoms: _612  and  _628
REMARK  248  A    between atoms: _613  and  _615
REMARK  249  A    between atoms: _615  and  _616
REMARK  250  A    between atoms: _616  and  _617
REMARK  251  A    between atoms: _621  and  _623
REMARK  252  A    between atoms: _623  and  _624
REMARK  253  A    between atoms: _623  and  _631
REMARK  254  A    between atoms: _624  and  _625
REMARK  255  A    between atoms: _625  and  _626
REMARK  256  A    between atoms: _626  and  _627
REMARK  257  A    between atoms: _627  and  _628
REMARK  258  A    between atoms: _633  and  _635
REMARK  259  A    between atoms: _635  and  _636
REMARK  260  A    between atoms: _635  and  _638
REMARK  261  A    between atoms: _638  and  _639
REMARK  262  A    between atoms: _642  and  _644
REMARK  263  A    between atoms: _644  and  _645
REMARK  264  A    between atoms: _647  and  _649
REMARK  265  A    between atoms: _649  and  _650
REMARK  266  A    between atoms: _653  and  _655
REMARK  267  A    between atoms: _655  and  _656
REMARK  268  A    between atoms: _655  and  _658
REMARK  269  A    between atoms: _658  and  _659
REMARK  270  A    between atoms: _664  and  _665
REMARK                            x       y       z     vdW  Elec       q    Type
REMARK                         _______ _______ _______ _____ _____    ______ ____
ROOT
ATOM      1  O   HOH     1      43.031  20.942  30.288  0.00  0.00    +0.000 OA
ENDROOT
TORSDOF 0
REMARK  Name = ../refined-set-2016/4el0/4el0_pocket.pdb
REMARK  270 active torsions:
REMARK  status: ('A' for Active; 'I' for Inactive)
REMARK    1  A    between atoms: _1  and  _3
REMARK    2  A    between atoms: _3  and  _4
REMARK    3  A    between atoms: _3  and  _6
REMARK    4  A    between atoms: _6  and  _7
REMARK    5  A    between atoms: _12  and  _13
REMARK    6  A    between atoms: _15  and  _17
REMARK    7  A    between atoms: _17  and  _18
REMARK    8  A    between atoms: _17  and  _20
REMARK    9  A    between atoms: _20  and  _21
REMARK   10  A    between atoms: _21  and  _22
REMARK   11  A    between atoms: _25  and  _27
REMARK   12  A    between atoms: _27  and  _28
REMARK   13  A    between atoms: _27  and  _30
REMARK   14  A    between atoms: _30  and  _31
REMARK   15  A    between atoms: _36  and  _38
REMARK   16  A    between atoms: _38  and  _39
REMARK   17  A    between atoms: _41  and  _43
REMARK   18  A    between atoms: _43  and  _44
REMARK   19  A    between atoms: _46  and  _48
REMARK   20  A    between atoms: _48  and  _49
REMARK   21  A    between atoms: _48  and  _51
REMARK   22  A    between atoms: _51  and  _52
REMARK   23  A    between atoms: _55  and  _57
REMARK   24  A    between atoms: _57  and  _58
REMARK   25  A    between atoms: _60  and  _62
REMARK   26  A    between atoms: _62  and  _63
REMARK   27  A    between atoms: _62  and  _65
REMARK   28  A    between atoms: _66  and  _67
REMARK   29  A    between atoms: _67  and  _68
REMARK   30  A    between atoms: _77  and  _79
REMARK   31  A    between atoms: _79  and  _80
REMARK   32  A    between atoms: _79  and  _82
REMARK   33  A    between atoms: _82  and  _83
REMARK   34  A    between atoms: _86  and  _88
REMARK   35  A    between atoms: _88  and  _89
REMARK   36  A    between atoms: _92  and  _94
REMARK   37  A    between atoms: _94  and  _95
REMARK   38  A    between atoms: _94  and  _97
REMARK   39  A    between atoms: _97  and  _98
REMARK   40  A    between atoms: _104  and  _106
REMARK   41  A    between atoms: _106  and  _107
REMARK   42  A    between atoms: _106  and  _109
REMARK   43  A    between atoms: _109  and  _110
REMARK   44  A    between atoms: _115  and  _117
REMARK   45  A    between atoms: _117  and  _118
REMARK   46  A    between atoms: _117  and  _120
REMARK   47  A    between atoms: _120  and  _121
REMARK   48  A    between atoms: _124  and  _126
REMARK   49  A    between atoms: _126  and  _127
REMARK   50  A    between atoms: _126  and  _129
REMARK   51  A    between atoms: _129  and  _130
REMARK   52  A    between atoms: _135  and  _137
REMARK   53  A    between atoms: _137  and  _138
REMARK   54  A    between atoms: _137  and  _140
REMARK   55  A    between atoms: _140  and  _141
REMARK   56  A    between atoms: _147  and  _149
REMARK   57  A    between atoms: _149  and  _150
REMARK   58  A    between atoms: _149  and  _152
REMARK   59  A    between atoms: _152  and  _153
REMARK   60  A    between atoms: _159  and  _161
REMARK   61  A    between atoms: _161  and  _162
REMARK   62  A    between atoms: _161  and  _164
REMARK   63  A    between atoms: _164  and  _165
REMARK   64  A    between atoms: _165  and  _166
REMARK   65  A    between atoms: _169  and  _171
REMARK   66  A    between atoms: _171  and  _172
REMARK   67  A    between atoms: _171  and  _174
REMARK   68  A    between atoms: _174  and  _175
REMARK   69  A    between atoms: _175  and  _176
REMARK   70  A    between atoms: _176  and  _177
REMARK   71  A    between atoms: _186  and  _188
REMARK   72  A    between atoms: _188  and  _189
REMARK   73  A    between atoms: _188  and  _191
REMARK   74  A    between atoms: _191  and  _192
REMARK   75  A    between atoms: _192  and  _193
REMARK   76  A    between atoms: _196  and  _198
REMARK   77  A    between atoms: _198  and  _199
REMARK   78  A    between atoms: _198  and  _201
REMARK   79  A    between atoms: _201  and  _202
REMARK   80  A    between atoms: _207  and  _209
REMARK   81  A    between atoms: _209  and  _210
REMARK   82  A    between atoms: _209  and  _212
REMARK   83  A    between atoms: _212  and  _213
REMARK   84  A    between atoms: _216  and  _218
REMARK   85  A    between atoms: _218  and  _219
REMARK   86  A    between atoms: _218  and  _221
REMARK   87  A    between atoms: _221  and  _222
REMARK   88  A    between atoms: _225  and  _227
REMARK   89  A    between atoms: _227  and  _228
REMARK   90  A    between atoms: _227  and  _230
REMARK   91  A    between atoms: _230  and  _231
REMARK   92  A    between atoms: _236  and  _238
REMARK   93  A    between atoms: _238  and  _239
REMARK   94  A    between atoms: _238  and  _241
REMARK   95  A    between atoms: _241  and  _242
REMARK   96  A    between atoms: _247  and  _248
REMARK   97  A    between atoms: _250  and  _252
REMARK   98  A    between atoms: _252  and  _253
REMARK   99  A    between atoms: _252  and  _255
REMARK  100  A    between atoms: _255  and  _256
REMARK  101  A    between atoms: _259  and  _261
REMARK  102  A    between atoms: _261  and  _262
REMARK  103  A    between atoms: _261  and  _264
REMARK  104  A    between atoms: _264  and  _265
REMARK  105  A    between atoms: _270  and  _272
REMARK  106  A    between atoms: _272  and  _273
REMARK  107  A    between atoms: _272  and  _275
REMARK  108  A    between atoms: _275  and  _276
REMARK  109  A    between atoms: _281  and  _283
REMARK  110  A    between atoms: _283  and  _284
REMARK  111  A    between atoms: _283  and  _286
REMARK  112  A    between atoms: _286  and  _287
REMARK  113  A    between atoms: _290  and  _292
REMARK  114  A    between atoms: _292  and  _293
REMARK  115  A    between atoms: _292  and  _295
REMARK  116  A    between atoms: _298  and  _300
REMARK  117  A    between atoms: _300  and  _301
REMARK  118  A    between atoms: _300  and  _303
REMARK  119  A    between atoms: _303  and  _304
REMARK  120  A    between atoms: _307  and  _309
REMARK  121  A    between atoms: _309  and  _310
REMARK  122  A    between atoms: _309  and  _312
REMARK  123  A    between atoms: _312  and  _313
REMARK  124  A    between atoms: _313  and  _314
REMARK  125  A    between atoms: _317  and  _319
REMARK  126  A    between atoms: _319  and  _320
REMARK  127  A    between atoms: _323  and  _325
REMARK  128  A    between atoms: _325  and  _326
REMARK  129  A    between atoms: _325  and  _328
REMARK  130  A    between atoms: _328  and  _329
REMARK  131  A    between atoms: _332  and  _334
REMARK  132  A    between atoms: _334  and  _335
REMARK  133  A    between atoms: _334  and  _337
REMARK  134  A    between atoms: _337  and  _338
REMARK  135  A    between atoms: _338  and  _339
REMARK  136  A    between atoms: _342  and  _344
REMARK  137  A    between atoms: _344  and  _345
REMARK  138  A    between atoms: _344  and  _347
REMARK  139  A    between atoms: _347  and  _348
REMARK  140  A    between atoms: _348  and  _349
REMARK  141  A    between atoms: _349  and  _350
REMARK  142  A    between atoms: _359  and  _361
REMARK  143  A    between atoms: _361  and  _362
REMARK  144  A    between atoms: _361  and  _364
REMARK  145  A    between atoms: _364  and  _365
REMARK  146  A    between atoms: _375  and  _377
REMARK  147  A    between atoms: _377  and  _378
REMARK  148  A    between atoms: _377  and  _380
REMARK  149  A    between atoms: _380  and  _381
REMARK  150  A    between atoms: _381  and  _382
REMARK  151  A    between atoms: _384  and  _386
REMARK  152  A    between atoms: _386  and  _387
REMARK  153  A    between atoms: _390  and  _392
REMARK  154  A    between atoms: _392  and  _393
REMARK  155  A    between atoms: _392  and  _395
REMARK  156  A    between atoms: _395  and  _396
REMARK  157  A    between atoms: _401  and  _403
REMARK  158  A    between atoms: _403  and  _404
REMARK  159  A    between atoms: _406  and  _408
REMARK  160  A    between atoms: _408  and  _409
REMARK  161  A    between atoms: _408  and  _411
REMARK  162  A    between atoms: _414  and  _416
REMARK  163  A    between atoms: _416  and  _417
REMARK  164  A    between atoms: _420  and  _422
REMARK  165  A    between atoms: _422  and  _423
REMARK  166  A    between atoms: _422  and  _425
REMARK  167  A    between atoms: _425  and  _426
REMARK  168  A    between atoms: _431  and  _433
REMARK  169  A    between atoms: _433  and  _434
REMARK  170  A    between atoms: _433  and  _436
REMARK  171  A    between atoms: _436  and  _437
REMARK  172  A    between atoms: _437  and  _438
REMARK  173  A    between atoms: _438  and  _439
REMARK  174  A    between atoms: _439  and  _440
REMARK  175  A    between atoms: _444  and  _446
REMARK  176  A    between atoms: _446  and  _447
REMARK  177  A    between atoms: _446  and  _449
REMARK  178  A    between atoms: _449  and  _450
REMARK  179  A    between atoms: _453  and  _455
REMARK  180  A    between atoms: _455  and  _456
REMARK  181  A    between atoms: _455  and  _458
REMARK  182  A    between atoms: _458  and  _459
REMARK  183  A    between atoms: _464  and  _466
REMARK  184  A    between atoms: _466  and  _467
REMARK  185  A    between atoms: _469  and  _471
REMARK  186  A    between atoms: _471  and  _472
REMARK  187  A    between atoms: _471  and  _474
REMARK  188  A    between atoms: _474  and  _475
REMARK  189  A    between atoms: _475  and  _476
REMARK  190  A    between atoms: _476  and  _477
REMARK  191  A    between atoms: _477  and  _478
REMARK  192  A    between atoms: _482  and  _484
REMARK  193  A    between atoms: _484  and  _485
REMARK  194  A    between atoms: _484  and  _487
REMARK  195  A    between atoms: _487  and  _488
REMARK  196  A    between atoms: _488  and  _489
REMARK  197  A    between atoms: _489  and  _490
REMARK  198  A    between atoms: _499  and  _501
REMARK  199  A    between atoms: _501  and  _502
REMARK  200  A    between atoms: _501  and  _504
REMARK  201  A    between atoms: _504  and  _505
REMARK  202  A    between atoms: _510  and  _511
REMARK  203  A    between atoms: _513  and  _515
REMARK  204  A    between atoms: _515  and  _516
REMARK  205  A    between atoms: _515  and  _518
REMARK  206  A    between atoms: _518  and  _519
REMARK  207  A    between atoms: _519  and  _520
REMARK  208  A    between atoms: _520  and  _521
REMARK  209  A    between atoms: _521  and  _522
REMARK  210  A    between atoms: _526  and  _528
REMARK  211  A    between atoms: _528  and  _529
REMARK  212  A    between atoms: _528  and  _531
REMARK  213  A    between atoms: _531  and  _532
REMARK  214  A    between atoms: _534  and  _536
REMARK  215  A    between atoms: _536  and  _537
REMARK  216  A    between atoms: _536  and  _539
REMARK  217  A    between atoms: _539  and  _540
REMARK  218  A    between atoms: _543  and  _545
REMARK  219  A    between atoms: _545  and  _546
REMARK  220  A    between atoms: _545  and  _548
REMARK  221  A    between atoms: _548  and  _549
REMARK  222  A    between atoms: _549  and  _550
REMARK  223  A    between atoms: _553  and  _555
REMARK  224  A    between atoms: _555  and  _556
REMARK  225  A    between atoms: _559  and  _561
REMARK  226  A    between atoms: _561  and  _562
REMARK  227  A    between atoms: _561  and  _564
REMARK  228  A    between atoms: _564  and  _565
REMARK  229  A    between atoms: _567  and  _569
REMARK  230  A    between atoms: _569  and  _570
REMARK  231  A    between atoms: _572  and  _574
REMARK  232  A    between atoms: _574  and  _575
REMARK  233  A    between atoms: _574  and  _577
REMARK  234  A    between atoms: _577  and  _578
REMARK  235  A    between atoms: _581  and  _583
REMARK  236  A    between atoms: _583  and  _584
REMARK  237  A    between atoms: _586  and  _588
REMARK  238  A    between atoms: _588  and  _589
REMARK  239  A    between atoms: _588  and  _591
REMARK  240  A    between atoms: _591  and  _592
REMARK  241  A    between atoms: _597  and  _599
REMARK  242  A    between atoms: _599  and  _600
REMARK  243  A    between atoms: _599  and  _602
REMARK  244  A    between atoms: _602  and  _603
REMARK  245  A    between atoms: _603  and  _604
REMARK  246  A    between atoms: _611  and  _612
REMARK  247  A    between atoms: _612  and  _628
REMARK  248  A    between atoms: _613  and  _615
REMARK  249  A    between atoms: _615  and  _616
REMARK  250  A    between atoms: _616  and  _617
REMARK  251  A    between atoms: _621  and  _623
REMARK  252  A    between atoms: _623  and  _624
REMARK  253  A    between atoms: _623  and  _631
REMARK  254  A    between atoms: _624  and  _625
REMARK  255  A    between atoms: _625  and  _626
REMARK  256  A    between atoms: _626  and  _627
REMARK  257  A    between atoms: _627  and  _628
REMARK  258  A    between atoms: _633  and  _635
REMARK  259  A    between atoms: _635  and  _636
REMARK  260  A    between atoms: _635  and  _638
REMARK  261  A    between atoms: _638  and  _639
REMARK  262  A    between atoms: _642  and  _644
REMARK  263  A    between atoms: _644  and  _645
REMARK  264  A    between atoms: _647  and  _649
REMARK  265  A    between atoms: _649  and  _650
REMARK  266  A    between atoms: _653  and  _655
REMARK  267  A    between atoms: _655  and  _656
REMARK  268  A    between atoms: _655  and  _658
REMARK  269  A    between atoms: _658  and  _659
REMARK  270  A    between atoms: _664  and  _665
REMARK                            x       y       z     vdW  Elec       q    Type
REMARK                         _______ _______ _______ _____ _____    ______ ____
ROOT
ATOM      1  O   HOH     1      36.119  24.525  24.386  0.00  0.00    +0.000 OA
ENDROOT
TORSDOF 0
REMARK  Name = ../refined-set-2016/4el0/4el0_pocket.pdb
REMARK  270 active torsions:
REMARK  status: ('A' for Active; 'I' for Inactive)
REMARK    1  A    between atoms: _1  and  _3
REMARK    2  A    between atoms: _3  and  _4
REMARK    3  A    between atoms: _3  and  _6
REMARK    4  A    between atoms: _6  and  _7
REMARK    5  A    between atoms: _12  and  _13
REMARK    6  A    between atoms: _15  and  _17
REMARK    7  A    between atoms: _17  and  _18
REMARK    8  A    between atoms: _17  and  _20
REMARK    9  A    between atoms: _20  and  _21
REMARK   10  A    between atoms: _21  and  _22
REMARK   11  A    between atoms: _25  and  _27
REMARK   12  A    between atoms: _27  and  _28
REMARK   13  A    between atoms: _27  and  _30
REMARK   14  A    between atoms: _30  and  _31
REMARK   15  A    between atoms: _36  and  _38
REMARK   16  A    between atoms: _38  and  _39
REMARK   17  A    between atoms: _41  and  _43
REMARK   18  A    between atoms: _43  and  _44
REMARK   19  A    between atoms: _46  and  _48
REMARK   20  A    between atoms: _48  and  _49
REMARK   21  A    between atoms: _48  and  _51
REMARK   22  A    between atoms: _51  and  _52
REMARK   23  A    between atoms: _55  and  _57
REMARK   24  A    between atoms: _57  and  _58
REMARK   25  A    between atoms: _60  and  _62
REMARK   26  A    between atoms: _62  and  _63
REMARK   27  A    between atoms: _62  and  _65
REMARK   28  A    between atoms: _66  and  _67
REMARK   29  A    between atoms: _67  and  _68
REMARK   30  A    between atoms: _77  and  _79
REMARK   31  A    between atoms: _79  and  _80
REMARK   32  A    between atoms: _79  and  _82
REMARK   33  A    between atoms: _82  and  _83
REMARK   34  A    between atoms: _86  and  _88
REMARK   35  A    between atoms: _88  and  _89
REMARK   36  A    between atoms: _92  and  _94
REMARK   37  A    between atoms: _94  and  _95
REMARK   38  A    between atoms: _94  and  _97
REMARK   39  A    between atoms: _97  and  _98
REMARK   40  A    between atoms: _104  and  _106
REMARK   41  A    between atoms: _106  and  _107
REMARK   42  A    between atoms: _106  and  _109
REMARK   43  A    between atoms: _109  and  _110
REMARK   44  A    between atoms: _115  and  _117
REMARK   45  A    between atoms: _117  and  _118
REMARK   46  A    between atoms: _117  and  _120
REMARK   47  A    between atoms: _120  and  _121
REMARK   48  A    between atoms: _124  and  _126
REMARK   49  A    between atoms: _126  and  _127
REMARK   50  A    between atoms: _126  and  _129
REMARK   51  A    between atoms: _129  and  _130
REMARK   52  A    between atoms: _135  and  _137
REMARK   53  A    between atoms: _137  and  _138
REMARK   54  A    between atoms: _137  and  _140
REMARK   55  A    between atoms: _140  and  _141
REMARK   56  A    between atoms: _147  and  _149
REMARK   57  A    between atoms: _149  and  _150
REMARK   58  A    between atoms: _149  and  _152
REMARK   59  A    between atoms: _152  and  _153
REMARK   60  A    between atoms: _159  and  _161
REMARK   61  A    between atoms: _161  and  _162
REMARK   62  A    between atoms: _161  and  _164
REMARK   63  A    between atoms: _164  and  _165
REMARK   64  A    between atoms: _165  and  _166
REMARK   65  A    between atoms: _169  and  _171
REMARK   66  A    between atoms: _171  and  _172
REMARK   67  A    between atoms: _171  and  _174
REMARK   68  A    between atoms: _174  and  _175
REMARK   69  A    between atoms: _175  and  _176
REMARK   70  A    between atoms: _176  and  _177
REMARK   71  A    between atoms: _186  and  _188
REMARK   72  A    between atoms: _188  and  _189
REMARK   73  A    between atoms: _188  and  _191
REMARK   74  A    between atoms: _191  and  _192
REMARK   75  A    between atoms: _192  and  _193
REMARK   76  A    between atoms: _196  and  _198
REMARK   77  A    between atoms: _198  and  _199
REMARK   78  A    between atoms: _198  and  _201
REMARK   79  A    between atoms: _201  and  _202
REMARK   80  A    between atoms: _207  and  _209
REMARK   81  A    between atoms: _209  and  _210
REMARK   82  A    between atoms: _209  and  _212
REMARK   83  A    between atoms: _212  and  _213
REMARK   84  A    between atoms: _216  and  _218
REMARK   85  A    between atoms: _218  and  _219
REMARK   86  A    between atoms: _218  and  _221
REMARK   87  A    between atoms: _221  and  _222
REMARK   88  A    between atoms: _225  and  _227
REMARK   89  A    between atoms: _227  and  _228
REMARK   90  A    between atoms: _227  and  _230
REMARK   91  A    between atoms: _230  and  _231
REMARK   92  A    between atoms: _236  and  _238
REMARK   93  A    between atoms: _238  and  _239
REMARK   94  A    between atoms: _238  and  _241
REMARK   95  A    between atoms: _241  and  _242
REMARK   96  A    between atoms: _247  and  _248
REMARK   97  A    between atoms: _250  and  _252
REMARK   98  A    between atoms: _252  and  _253
REMARK   99  A    between atoms: _252  and  _255
REMARK  100  A    between atoms: _255  and  _256
REMARK  101  A    between atoms: _259  and  _261
REMARK  102  A    between atoms: _261  and  _262
REMARK  103  A    between atoms: _261  and  _264
REMARK  104  A    between atoms: _264  and  _265
REMARK  105  A    between atoms: _270  and  _272
REMARK  106  A    between atoms: _272  and  _273
REMARK  107  A    between atoms: _272  and  _275
REMARK  108  A    between atoms: _275  and  _276
REMARK  109  A    between atoms: _281  and  _283
REMARK  110  A    between atoms: _283  and  _284
REMARK  111  A    between atoms: _283  and  _286
REMARK  112  A    between atoms: _286  and  _287
REMARK  113  A    between atoms: _290  and  _292
REMARK  114  A    between atoms: _292  and  _293
REMARK  115  A    between atoms: _292  and  _295
REMARK  116  A    between atoms: _298  and  _300
REMARK  117  A    between atoms: _300  and  _301
REMARK  118  A    between atoms: _300  and  _303
REMARK  119  A    between atoms: _303  and  _304
REMARK  120  A    between atoms: _307  and  _309
REMARK  121  A    between atoms: _309  and  _310
REMARK  122  A    between atoms: _309  and  _312
REMARK  123  A    between atoms: _312  and  _313
REMARK  124  A    between atoms: _313  and  _314
REMARK  125  A    between atoms: _317  and  _319
REMARK  126  A    between atoms: _319  and  _320
REMARK  127  A    between atoms: _323  and  _325
REMARK  128  A    between atoms: _325  and  _326
REMARK  129  A    between atoms: _325  and  _328
REMARK  130  A    between atoms: _328  and  _329
REMARK  131  A    between atoms: _332  and  _334
REMARK  132  A    between atoms: _334  and  _335
REMARK  133  A    between atoms: _334  and  _337
REMARK  134  A    between atoms: _337  and  _338
REMARK  135  A    between atoms: _338  and  _339
REMARK  136  A    between atoms: _342  and  _344
REMARK  137  A    between atoms: _344  and  _345
REMARK  138  A    between atoms: _344  and  _347
REMARK  139  A    between atoms: _347  and  _348
REMARK  140  A    between atoms: _348  and  _349
REMARK  141  A    between atoms: _349  and  _350
REMARK  142  A    between atoms: _359  and  _361
REMARK  143  A    between atoms: _361  and  _362
REMARK  144  A    between atoms: _361  and  _364
REMARK  145  A    between atoms: _364  and  _365
REMARK  146  A    between atoms: _375  and  _377
REMARK  147  A    between atoms: _377  and  _378
REMARK  148  A    between atoms: _377  and  _380
REMARK  149  A    between atoms: _380  and  _381
REMARK  150  A    between atoms: _381  and  _382
REMARK  151  A    between atoms: _384  and  _386
REMARK  152  A    between atoms: _386  and  _387
REMARK  153  A    between atoms: _390  and  _392
REMARK  154  A    between atoms: _392  and  _393
REMARK  155  A    between atoms: _392  and  _395
REMARK  156  A    between atoms: _395  and  _396
REMARK  157  A    between atoms: _401  and  _403
REMARK  158  A    between atoms: _403  and  _404
REMARK  159  A    between atoms: _406  and  _408
REMARK  160  A    between atoms: _408  and  _409
REMARK  161  A    between atoms: _408  and  _411
REMARK  162  A    between atoms: _414  and  _416
REMARK  163  A    between atoms: _416  and  _417
REMARK  164  A    between atoms: _420  and  _422
REMARK  165  A    between atoms: _422  and  _423
REMARK  166  A    between atoms: _422  and  _425
REMARK  167  A    between atoms: _425  and  _426
REMARK  168  A    between atoms: _431  and  _433
REMARK  169  A    between atoms: _433  and  _434
REMARK  170  A    between atoms: _433  and  _436
REMARK  171  A    between atoms: _436  and  _437
REMARK  172  A    between atoms: _437  and  _438
REMARK  173  A    between atoms: _438  and  _439
REMARK  174  A    between atoms: _439  and  _440
REMARK  175  A    between atoms: _444  and  _446
REMARK  176  A    between atoms: _446  and  _447
REMARK  177  A    between atoms: _446  and  _449
REMARK  178  A    between atoms: _449  and  _450
REMARK  179  A    between atoms: _453  and  _455
REMARK  180  A    between atoms: _455  and  _456
REMARK  181  A    between atoms: _455  and  _458
REMARK  182  A    between atoms: _458  and  _459
REMARK  183  A    between atoms: _464  and  _466
REMARK  184  A    between atoms: _466  and  _467
REMARK  185  A    between atoms: _469  and  _471
REMARK  186  A    between atoms: _471  and  _472
REMARK  187  A    between atoms: _471  and  _474
REMARK  188  A    between atoms: _474  and  _475
REMARK  189  A    between atoms: _475  and  _476
REMARK  190  A    between atoms: _476  and  _477
REMARK  191  A    between atoms: _477  and  _478
REMARK  192  A    between atoms: _482  and  _484
REMARK  193  A    between atoms: _484  and  _485
REMARK  194  A    between atoms: _484  and  _487
REMARK  195  A    between atoms: _487  and  _488
REMARK  196  A    between atoms: _488  and  _489
REMARK  197  A    between atoms: _489  and  _490
REMARK  198  A    between atoms: _499  and  _501
REMARK  199  A    between atoms: _501  and  _502
REMARK  200  A    between atoms: _501  and  _504
REMARK  201  A    between atoms: _504  and  _505
REMARK  202  A    between atoms: _510  and  _511
REMARK  203  A    between atoms: _513  and  _515
REMARK  204  A    between atoms: _515  and  _516
REMARK  205  A    between atoms: _515  and  _518
REMARK  206  A    between atoms: _518  and  _519
REMARK  207  A    between atoms: _519  and  _520
REMARK  208  A    between atoms: _520  and  _521
REMARK  209  A    between atoms: _521  and  _522
REMARK  210  A    between atoms: _526  and  _528
REMARK  211  A    between atoms: _528  and  _529
REMARK  212  A    between atoms: _528  and  _531
REMARK  213  A    between atoms: _531  and  _532
REMARK  214  A    between atoms: _534  and  _536
REMARK  215  A    between atoms: _536  and  _537
REMARK  216  A    between atoms: _536  and  _539
REMARK  217  A    between atoms: _539  and  _540
REMARK  218  A    between atoms: _543  and  _545
REMARK  219  A    between atoms: _545  and  _546
REMARK  220  A    between atoms: _545  and  _548
REMARK  221  A    between atoms: _548  and  _549
REMARK  222  A    between atoms: _549  and  _550
REMARK  223  A    between atoms: _553  and  _555
REMARK  224  A    between atoms: _555  and  _556
REMARK  225  A    between atoms: _559  and  _561
REMARK  226  A    between atoms: _561  and  _562
REMARK  227  A    between atoms: _561  and  _564
REMARK  228  A    between atoms: _564  and  _565
REMARK  229  A    between atoms: _567  and  _569
REMARK  230  A    between atoms: _569  and  _570
REMARK  231  A    between atoms: _572  and  _574
REMARK  232  A    between atoms: _574  and  _575
REMARK  233  A    between atoms: _574  and  _577
REMARK  234  A    between atoms: _577  and  _578
REMARK  235  A    between atoms: _581  and  _583
REMARK  236  A    between atoms: _583  and  _584
REMARK  237  A    between atoms: _586  and  _588
REMARK  238  A    between atoms: _588  and  _589
REMARK  239  A    between atoms: _588  and  _591
REMARK  240  A    between atoms: _591  and  _592
REMARK  241  A    between atoms: _597  and  _599
REMARK  242  A    between atoms: _599  and  _600
REMARK  243  A    between atoms: _599  and  _602
REMARK  244  A    between atoms: _602  and  _603
REMARK  245  A    between atoms: _603  and  _604
REMARK  246  A    between atoms: _611  and  _612
REMARK  247  A    between atoms: _612  and  _628
REMARK  248  A    between atoms: _613  and  _615
REMARK  249  A    between atoms: _615  and  _616
REMARK  250  A    between atoms: _616  and  _617
REMARK  251  A    between atoms: _621  and  _623
REMARK  252  A    between atoms: _623  and  _624
REMARK  253  A    between atoms: _623  and  _631
REMARK  254  A    between atoms: _624  and  _625
REMARK  255  A    between atoms: _625  and  _626
REMARK  256  A    between atoms: _626  and  _627
REMARK  257  A    between atoms: _627  and  _628
REMARK  258  A    between atoms: _633  and  _635
REMARK  259  A    between atoms: _635  and  _636
REMARK  260  A    between atoms: _635  and  _638
REMARK  261  A    between atoms: _638  and  _639
REMARK  262  A    between atoms: _642  and  _644
REMARK  263  A    between atoms: _644  and  _645
REMARK  264  A    between atoms: _647  and  _649
REMARK  265  A    between atoms: _649  and  _650
REMARK  266  A    between atoms: _653  and  _655
REMARK  267  A    between atoms: _655  and  _656
REMARK  268  A    between atoms: _655  and  _658
REMARK  269  A    between atoms: _658  and  _659
REMARK  270  A    between atoms: _664  and  _665
REMARK                            x       y       z     vdW  Elec       q    Type
REMARK                         _______ _______ _______ _____ _____    ______ ____
ROOT
ATOM      1  O   HOH     1      33.347  25.746  33.550  0.00  0.00    +0.000 OA
ENDROOT
TORSDOF 0
REMARK  Name = ../refined-set-2016/4el0/4el0_pocket.pdb
REMARK  270 active torsions:
REMARK  status: ('A' for Active; 'I' for Inactive)
REMARK    1  A    between atoms: _1  and  _3
REMARK    2  A    between atoms: _3  and  _4
REMARK    3  A    between atoms: _3  and  _6
REMARK    4  A    between atoms: _6  and  _7
REMARK    5  A    between atoms: _12  and  _13
REMARK    6  A    between atoms: _15  and  _17
REMARK    7  A    between atoms: _17  and  _18
REMARK    8  A    between atoms: _17  and  _20
REMARK    9  A    between atoms: _20  and  _21
REMARK   10  A    between atoms: _21  and  _22
REMARK   11  A    between atoms: _25  and  _27
REMARK   12  A    between atoms: _27  and  _28
REMARK   13  A    between atoms: _27  and  _30
REMARK   14  A    between atoms: _30  and  _31
REMARK   15  A    between atoms: _36  and  _38
REMARK   16  A    between atoms: _38  and  _39
REMARK   17  A    between atoms: _41  and  _43
REMARK   18  A    between atoms: _43  and  _44
REMARK   19  A    between atoms: _46  and  _48
REMARK   20  A    between atoms: _48  and  _49
REMARK   21  A    between atoms: _48  and  _51
REMARK   22  A    between atoms: _51  and  _52
REMARK   23  A    between atoms: _55  and  _57
REMARK   24  A    between atoms: _57  and  _58
REMARK   25  A    between atoms: _60  and  _62
REMARK   26  A    between atoms: _62  and  _63
REMARK   27  A    between atoms: _62  and  _65
REMARK   28  A    between atoms: _66  and  _67
REMARK   29  A    between atoms: _67  and  _68
REMARK   30  A    between atoms: _77  and  _79
REMARK   31  A    between atoms: _79  and  _80
REMARK   32  A    between atoms: _79  and  _82
REMARK   33  A    between atoms: _82  and  _83
REMARK   34  A    between atoms: _86  and  _88
REMARK   35  A    between atoms: _88  and  _89
REMARK   36  A    between atoms: _92  and  _94
REMARK   37  A    between atoms: _94  and  _95
REMARK   38  A    between atoms: _94  and  _97
REMARK   39  A    between atoms: _97  and  _98
REMARK   40  A    between atoms: _104  and  _106
REMARK   41  A    between atoms: _106  and  _107
REMARK   42  A    between atoms: _106  and  _109
REMARK   43  A    between atoms: _109  and  _110
REMARK   44  A    between atoms: _115  and  _117
REMARK   45  A    between atoms: _117  and  _118
REMARK   46  A    between atoms: _117  and  _120
REMARK   47  A    between atoms: _120  and  _121
REMARK   48  A    between atoms: _124  and  _126
REMARK   49  A    between atoms: _126  and  _127
REMARK   50  A    between atoms: _126  and  _129
REMARK   51  A    between atoms: _129  and  _130
REMARK   52  A    between atoms: _135  and  _137
REMARK   53  A    between atoms: _137  and  _138
REMARK   54  A    between atoms: _137  and  _140
REMARK   55  A    between atoms: _140  and  _141
REMARK   56  A    between atoms: _147  and  _149
REMARK   57  A    between atoms: _149  and  _150
REMARK   58  A    between atoms: _149  and  _152
REMARK   59  A    between atoms: _152  and  _153
REMARK   60  A    between atoms: _159  and  _161
REMARK   61  A    between atoms: _161  and  _162
REMARK   62  A    between atoms: _161  and  _164
REMARK   63  A    between atoms: _164  and  _165
REMARK   64  A    between atoms: _165  and  _166
REMARK   65  A    between atoms: _169  and  _171
REMARK   66  A    between atoms: _171  and  _172
REMARK   67  A    between atoms: _171  and  _174
REMARK   68  A    between atoms: _174  and  _175
REMARK   69  A    between atoms: _175  and  _176
REMARK   70  A    between atoms: _176  and  _177
REMARK   71  A    between atoms: _186  and  _188
REMARK   72  A    between atoms: _188  and  _189
REMARK   73  A    between atoms: _188  and  _191
REMARK   74  A    between atoms: _191  and  _192
REMARK   75  A    between atoms: _192  and  _193
REMARK   76  A    between atoms: _196  and  _198
REMARK   77  A    between atoms: _198  and  _199
REMARK   78  A    between atoms: _198  and  _201
REMARK   79  A    between atoms: _201  and  _202
REMARK   80  A    between atoms: _207  and  _209
REMARK   81  A    between atoms: _209  and  _210
REMARK   82  A    between atoms: _209  and  _212
REMARK   83  A    between atoms: _212  and  _213
REMARK   84  A    between atoms: _216  and  _218
REMARK   85  A    between atoms: _218  and  _219
REMARK   86  A    between atoms: _218  and  _221
REMARK   87  A    between atoms: _221  and  _222
REMARK   88  A    between atoms: _225  and  _227
REMARK   89  A    between atoms: _227  and  _228
REMARK   90  A    between atoms: _227  and  _230
REMARK   91  A    between atoms: _230  and  _231
REMARK   92  A    between atoms: _236  and  _238
REMARK   93  A    between atoms: _238  and  _239
REMARK   94  A    between atoms: _238  and  _241
REMARK   95  A    between atoms: _241  and  _242
REMARK   96  A    between atoms: _247  and  _248
REMARK   97  A    between atoms: _250  and  _252
REMARK   98  A    between atoms: _252  and  _253
REMARK   99  A    between atoms: _252  and  _255
REMARK  100  A    between atoms: _255  and  _256
REMARK  101  A    between atoms: _259  and  _261
REMARK  102  A    between atoms: _261  and  _262
REMARK  103  A    between atoms: _261  and  _264
REMARK  104  A    between atoms: _264  and  _265
REMARK  105  A    between atoms: _270  and  _272
REMARK  106  A    between atoms: _272  and  _273
REMARK  107  A    between atoms: _272  and  _275
REMARK  108  A    between atoms: _275  and  _276
REMARK  109  A    between atoms: _281  and  _283
REMARK  110  A    between atoms: _283  and  _284
REMARK  111  A    between atoms: _283  and  _286
REMARK  112  A    between atoms: _286  and  _287
REMARK  113  A    between atoms: _290  and  _292
REMARK  114  A    between atoms: _292  and  _293
REMARK  115  A    between atoms: _292  and  _295
REMARK  116  A    between atoms: _298  and  _300
REMARK  117  A    between atoms: _300  and  _301
REMARK  118  A    between atoms: _300  and  _303
REMARK  119  A    between atoms: _303  and  _304
REMARK  120  A    between atoms: _307  and  _309
REMARK  121  A    between atoms: _309  and  _310
REMARK  122  A    between atoms: _309  and  _312
REMARK  123  A    between atoms: _312  and  _313
REMARK  124  A    between atoms: _313  and  _314
REMARK  125  A    between atoms: _317  and  _319
REMARK  126  A    between atoms: _319  and  _320
REMARK  127  A    between atoms: _323  and  _325
REMARK  128  A    between atoms: _325  and  _326
REMARK  129  A    between atoms: _325  and  _328
REMARK  130  A    between atoms: _328  and  _329
REMARK  131  A    between atoms: _332  and  _334
REMARK  132  A    between atoms: _334  and  _335
REMARK  133  A    between atoms: _334  and  _337
REMARK  134  A    between atoms: _337  and  _338
REMARK  135  A    between atoms: _338  and  _339
REMARK  136  A    between atoms: _342  and  _344
REMARK  137  A    between atoms: _344  and  _345
REMARK  138  A    between atoms: _344  and  _347
REMARK  139  A    between atoms: _347  and  _348
REMARK  140  A    between atoms: _348  and  _349
REMARK  141  A    between atoms: _349  and  _350
REMARK  142  A    between atoms: _359  and  _361
REMARK  143  A    between atoms: _361  and  _362
REMARK  144  A    between atoms: _361  and  _364
REMARK  145  A    between atoms: _364  and  _365
REMARK  146  A    between atoms: _375  and  _377
REMARK  147  A    between atoms: _377  and  _378
REMARK  148  A    between atoms: _377  and  _380
REMARK  149  A    between atoms: _380  and  _381
REMARK  150  A    between atoms: _381  and  _382
REMARK  151  A    between atoms: _384  and  _386
REMARK  152  A    between atoms: _386  and  _387
REMARK  153  A    between atoms: _390  and  _392
REMARK  154  A    between atoms: _392  and  _393
REMARK  155  A    between atoms: _392  and  _395
REMARK  156  A    between atoms: _395  and  _396
REMARK  157  A    between atoms: _401  and  _403
REMARK  158  A    between atoms: _403  and  _404
REMARK  159  A    between atoms: _406  and  _408
REMARK  160  A    between atoms: _408  and  _409
REMARK  161  A    between atoms: _408  and  _411
REMARK  162  A    between atoms: _414  and  _416
REMARK  163  A    between atoms: _416  and  _417
REMARK  164  A    between atoms: _420  and  _422
REMARK  165  A    between atoms: _422  and  _423
REMARK  166  A    between atoms: _422  and  _425
REMARK  167  A    between atoms: _425  and  _426
REMARK  168  A    between atoms: _431  and  _433
REMARK  169  A    between atoms: _433  and  _434
REMARK  170  A    between atoms: _433  and  _436
REMARK  171  A    between atoms: _436  and  _437
REMARK  172  A    between atoms: _437  and  _438
REMARK  173  A    between atoms: _438  and  _439
REMARK  174  A    between atoms: _439  and  _440
REMARK  175  A    between atoms: _444  and  _446
REMARK  176  A    between atoms: _446  and  _447
REMARK  177  A    between atoms: _446  and  _449
REMARK  178  A    between atoms: _449  and  _450
REMARK  179  A    between atoms: _453  and  _455
REMARK  180  A    between atoms: _455  and  _456
REMARK  181  A    between atoms: _455  and  _458
REMARK  182  A    between atoms: _458  and  _459
REMARK  183  A    between atoms: _464  and  _466
REMARK  184  A    between atoms: _466  and  _467
REMARK  185  A    between atoms: _469  and  _471
REMARK  186  A    between atoms: _471  and  _472
REMARK  187  A    between atoms: _471  and  _474
REMARK  188  A    between atoms: _474  and  _475
REMARK  189  A    between atoms: _475  and  _476
REMARK  190  A    between atoms: _476  and  _477
REMARK  191  A    between atoms: _477  and  _478
REMARK  192  A    between atoms: _482  and  _484
REMARK  193  A    between atoms: _484  and  _485
REMARK  194  A    between atoms: _484  and  _487
REMARK  195  A    between atoms: _487  and  _488
REMARK  196  A    between atoms: _488  and  _489
REMARK  197  A    between atoms: _489  and  _490
REMARK  198  A    between atoms: _499  and  _501
REMARK  199  A    between atoms: _501  and  _502
REMARK  200  A    between atoms: _501  and  _504
REMARK  201  A    between atoms: _504  and  _505
REMARK  202  A    between atoms: _510  and  _511
REMARK  203  A    between atoms: _513  and  _515
REMARK  204  A    between atoms: _515  and  _516
REMARK  205  A    between atoms: _515  and  _518
REMARK  206  A    between atoms: _518  and  _519
REMARK  207  A    between atoms: _519  and  _520
REMARK  208  A    between atoms: _520  and  _521
REMARK  209  A    between atoms: _521  and  _522
REMARK  210  A    between atoms: _526  and  _528
REMARK  211  A    between atoms: _528  and  _529
REMARK  212  A    between atoms: _528  and  _531
REMARK  213  A    between atoms: _531  and  _532
REMARK  214  A    between atoms: _534  and  _536
REMARK  215  A    between atoms: _536  and  _537
REMARK  216  A    between atoms: _536  and  _539
REMARK  217  A    between atoms: _539  and  _540
REMARK  218  A    between atoms: _543  and  _545
REMARK  219  A    between atoms: _545  and  _546
REMARK  220  A    between atoms: _545  and  _548
REMARK  221  A    between atoms: _548  and  _549
REMARK  222  A    between atoms: _549  and  _550
REMARK  223  A    between atoms: _553  and  _555
REMARK  224  A    between atoms: _555  and  _556
REMARK  225  A    between atoms: _559  and  _561
REMARK  226  A    between atoms: _561  and  _562
REMARK  227  A    between atoms: _561  and  _564
REMARK  228  A    between atoms: _564  and  _565
REMARK  229  A    between atoms: _567  and  _569
REMARK  230  A    between atoms: _569  and  _570
REMARK  231  A    between atoms: _572  and  _574
REMARK  232  A    between atoms: _574  and  _575
REMARK  233  A    between atoms: _574  and  _577
REMARK  234  A    between atoms: _577  and  _578
REMARK  235  A    between atoms: _581  and  _583
REMARK  236  A    between atoms: _583  and  _584
REMARK  237  A    between atoms: _586  and  _588
REMARK  238  A    between atoms: _588  and  _589
REMARK  239  A    between atoms: _588  and  _591
REMARK  240  A    between atoms: _591  and  _592
REMARK  241  A    between atoms: _597  and  _599
REMARK  242  A    between atoms: _599  and  _600
REMARK  243  A    between atoms: _599  and  _602
REMARK  244  A    between atoms: _602  and  _603
REMARK  245  A    between atoms: _603  and  _604
REMARK  246  A    between atoms: _611  and  _612
REMARK  247  A    between atoms: _612  and  _628
REMARK  248  A    between atoms: _613  and  _615
REMARK  249  A    between atoms: _615  and  _616
REMARK  250  A    between atoms: _616  and  _617
REMARK  251  A    between atoms: _621  and  _623
REMARK  252  A    between atoms: _623  and  _624
REMARK  253  A    between atoms: _623  and  _631
REMARK  254  A    between atoms: _624  and  _625
REMARK  255  A    between atoms: _625  and  _626
REMARK  256  A    between atoms: _626  and  _627
REMARK  257  A    between atoms: _627  and  _628
REMARK  258  A    between atoms: _633  and  _635
REMARK  259  A    between atoms: _635  and  _636
REMARK  260  A    between atoms: _635  and  _638
REMARK  261  A    between atoms: _638  and  _639
REMARK  262  A    between atoms: _642  and  _644
REMARK  263  A    between atoms: _644  and  _645
REMARK  264  A    between atoms: _647  and  _649
REMARK  265  A    between atoms: _649  and  _650
REMARK  266  A    between atoms: _653  and  _655
REMARK  267  A    between atoms: _655  and  _656
REMARK  268  A    between atoms: _655  and  _658
REMARK  269  A    between atoms: _658  and  _659
REMARK  270  A    between atoms: _664  and  _665
REMARK                            x       y       z     vdW  Elec       q    Type
REMARK                         _______ _______ _______ _____ _____    ______ ____
ROOT
ATOM      1  O   HOH     1      39.016  22.910  19.787  0.00  0.00    +0.000 OA
ENDROOT
TORSDOF 0
