REMARK  Name = ../refined-set-2016/1q54/1q54_pocket.pdb
REMARK  193 active torsions:
REMARK  status: ('A' for Active; 'I' for Inactive)
REMARK    1  A    between atoms: _1  and  _5
REMARK    2  A    between atoms: _5  and  _6
REMARK    3  A    between atoms: _5  and  _8
REMARK    4  A    between atoms: _8  and  _9
REMARK    5  A    between atoms: _9  and  _10
REMARK    6  A    between atoms: _13  and  _15
REMARK    7  A    between atoms: _15  and  _16
REMARK    8  A    between atoms: _15  and  _18
REMARK    9  A    between atoms: _18  and  _19
REMARK   10  A    between atoms: _24  and  _26
REMARK   11  A    between atoms: _26  and  _27
REMARK   12  A    between atoms: _26  and  _29
REMARK   13  A    between atoms: _32  and  _34
REMARK   14  A    between atoms: _34  and  _35
REMARK   15  A    between atoms: _34  and  _37
REMARK   16  A    between atoms: _37  and  _38
REMARK   17  A    between atoms: _38  and  _39
REMARK   18  A    between atoms: _39  and  _40
REMARK   19  A    between atoms: _40  and  _41
REMARK   20  A    between atoms: _45  and  _47
REMARK   21  A    between atoms: _47  and  _48
REMARK   22  A    between atoms: _47  and  _50
REMARK   23  A    between atoms: _50  and  _51
REMARK   24  A    between atoms: _55  and  MN_513
REMARK   25  A    between atoms: _56  and  _58
REMARK   26  A    between atoms: _58  and  _59
REMARK   27  A    between atoms: _58  and  _61
REMARK   28  A    between atoms: _61  and  _62
REMARK   29  A    between atoms: _66  and  MN_513
REMARK   30  A    between atoms: _67  and  _69
REMARK   31  A    between atoms: _69  and  _70
REMARK   32  A    between atoms: _69  and  _72
REMARK   33  A    between atoms: _72  and  _73
REMARK   34  A    between atoms: _76  and  _78
REMARK   35  A    between atoms: _78  and  _79
REMARK   36  A    between atoms: _82  and  _84
REMARK   37  A    between atoms: _84  and  _85
REMARK   38  A    between atoms: _84  and  _87
REMARK   39  A    between atoms: _87  and  _88
REMARK   40  A    between atoms: _94  and  _96
REMARK   41  A    between atoms: _96  and  _97
REMARK   42  A    between atoms: _96  and  _99
REMARK   43  A    between atoms: _99  and  _100
REMARK   44  A    between atoms: _102  and  _104
REMARK   45  A    between atoms: _104  and  _105
REMARK   46  A    between atoms: _104  and  _107
REMARK   47  A    between atoms: _107  and  _108
REMARK   48  A    between atoms: _110  and  _112
REMARK   49  A    between atoms: _112  and  _113
REMARK   50  A    between atoms: _112  and  _115
REMARK   51  A    between atoms: _115  and  _116
REMARK   52  A    between atoms: _126  and  _128
REMARK   53  A    between atoms: _128  and  _129
REMARK   54  A    between atoms: _128  and  _131
REMARK   55  A    between atoms: _131  and  _132
REMARK   56  A    between atoms: _135  and  _137
REMARK   57  A    between atoms: _137  and  _138
REMARK   58  A    between atoms: _137  and  _140
REMARK   59  A    between atoms: _140  and  _141
REMARK   60  A    between atoms: _141  and  _142
REMARK   61  A    between atoms: _142  and  _143
REMARK   62  A    between atoms: _152  and  _154
REMARK   63  A    between atoms: _154  and  _155
REMARK   64  A    between atoms: _158  and  _160
REMARK   65  A    between atoms: _160  and  _161
REMARK   66  A    between atoms: _160  and  _163
REMARK   67  A    between atoms: _163  and  _164
REMARK   68  A    between atoms: _164  and  _165
REMARK   69  A    between atoms: _165  and  _166
REMARK   70  A    between atoms: _166  and  _167
REMARK   71  A    between atoms: _171  and  _173
REMARK   72  A    between atoms: _173  and  _174
REMARK   73  A    between atoms: _173  and  _176
REMARK   74  A    between atoms: _176  and  _177
REMARK   75  A    between atoms: _177  and  _178
REMARK   76  A    between atoms: _178  and  _179
REMARK   77  A    between atoms: _179  and  _180
REMARK   78  A    between atoms: _184  and  _186
REMARK   79  A    between atoms: _186  and  _187
REMARK   80  A    between atoms: _190  and  _192
REMARK   81  A    between atoms: _192  and  _193
REMARK   82  A    between atoms: _192  and  _195
REMARK   83  A    between atoms: _195  and  _196
REMARK   84  A    between atoms: _206  and  _208
REMARK   85  A    between atoms: _208  and  _209
REMARK   86  A    between atoms: _208  and  _211
REMARK   87  A    between atoms: _211  and  _212
REMARK   88  A    between atoms: _215  and  _217
REMARK   89  A    between atoms: _217  and  _218
REMARK   90  A    between atoms: _217  and  _220
REMARK   91  A    between atoms: _220  and  _221
REMARK   92  A    between atoms: _226  and  _228
REMARK   93  A    between atoms: _228  and  _229
REMARK   94  A    between atoms: _228  and  _231
REMARK   95  A    between atoms: _231  and  _232
REMARK   96  A    between atoms: _234  and  _236
REMARK   97  A    between atoms: _236  and  _237
REMARK   98  A    between atoms: _236  and  _239
REMARK   99  A    between atoms: _242  and  _244
REMARK  100  A    between atoms: _244  and  _245
REMARK  101  A    between atoms: _248  and  _250
REMARK  102  A    between atoms: _250  and  _251
REMARK  103  A    between atoms: _253  and  _255
REMARK  104  A    between atoms: _255  and  _256
REMARK  105  A    between atoms: _255  and  _258
REMARK  106  A    between atoms: _258  and  _259
REMARK  107  A    between atoms: _263  and  MN_513
REMARK  108  A    between atoms: _265  and  _266
REMARK  109  A    between atoms: _271  and  _273
REMARK  110  A    between atoms: _273  and  _274
REMARK  111  A    between atoms: _273  and  _276
REMARK  112  A    between atoms: _276  and  _277
REMARK  113  A    between atoms: _277  and  _278
REMARK  114  A    between atoms: _283  and  _285
REMARK  115  A    between atoms: _285  and  _286
REMARK  116  A    between atoms: _285  and  _288
REMARK  117  A    between atoms: _288  and  _289
REMARK  118  A    between atoms: _289  and  _290
REMARK  119  A    between atoms: _290  and  _291
REMARK  120  A    between atoms: _300  and  _302
REMARK  121  A    between atoms: _302  and  _303
REMARK  122  A    between atoms: _302  and  _305
REMARK  123  A    between atoms: _305  and  _306
REMARK  124  A    between atoms: _306  and  _307
REMARK  125  A    between atoms: _307  and  _308
REMARK  126  A    between atoms: _317  and  _319
REMARK  127  A    between atoms: _319  and  _320
REMARK  128  A    between atoms: _319  and  _322
REMARK  129  A    between atoms: _322  and  _323
REMARK  130  A    between atoms: _328  and  _329
REMARK  131  A    between atoms: _331  and  _333
REMARK  132  A    between atoms: _333  and  _334
REMARK  133  A    between atoms: _333  and  _336
REMARK  134  A    between atoms: _336  and  _337
REMARK  135  A    between atoms: _337  and  _338
REMARK  136  A    between atoms: _338  and  _340
REMARK  137  A    between atoms: _340  and  MG_514
REMARK  138  A    between atoms: _341  and  _343
REMARK  139  A    between atoms: _343  and  _344
REMARK  140  A    between atoms: _343  and  _346
REMARK  141  A    between atoms: _346  and  _347
REMARK  142  A    between atoms: _353  and  _355
REMARK  143  A    between atoms: _355  and  _356
REMARK  144  A    between atoms: _355  and  _358
REMARK  145  A    between atoms: _358  and  _359
REMARK  146  A    between atoms: _364  and  _365
REMARK  147  A    between atoms: _367  and  _369
REMARK  148  A    between atoms: _369  and  _370
REMARK  149  A    between atoms: _373  and  _375
REMARK  150  A    between atoms: _375  and  _376
REMARK  151  A    between atoms: _375  and  _378
REMARK  152  A    between atoms: _381  and  _383
REMARK  153  A    between atoms: _393  and  _396
REMARK  154  A    between atoms: _396  and  _397
REMARK  155  A    between atoms: _404  and  _405
REMARK  156  A    between atoms: _412  and  _414
REMARK  157  A    between atoms: _414  and  _415
REMARK  158  A    between atoms: _414  and  _417
REMARK  159  A    between atoms: _420  and  _422
REMARK  160  A    between atoms: _422  and  _423
REMARK  161  A    between atoms: _422  and  _425
REMARK  162  A    between atoms: _428  and  _429
REMARK  163  A    between atoms: _434  and  _436
REMARK  164  A    between atoms: _436  and  _437
REMARK  165  A    between atoms: _436  and  _439
REMARK  166  A    between atoms: _442  and  _444
REMARK  167  A    between atoms: _444  and  _445
REMARK  168  A    between atoms: _444  and  _447
REMARK  169  A    between atoms: _447  and  _448
REMARK  170  A    between atoms: _451  and  _453
REMARK  171  A    between atoms: _453  and  _454
REMARK  172  A    between atoms: _453  and  _456
REMARK  173  A    between atoms: _456  and  _457
REMARK  174  A    between atoms: _457  and  _458
REMARK  175  A    between atoms: _461  and  _463
REMARK  176  A    between atoms: _463  and  _464
REMARK  177  A    between atoms: _463  and  _466
REMARK  178  A    between atoms: _466  and  _467
REMARK  179  A    between atoms: _470  and  _471
REMARK  180  A    between atoms: _476  and  _478
REMARK  181  A    between atoms: _478  and  _479
REMARK  182  A    between atoms: _478  and  _481
REMARK  183  A    between atoms: _481  and  _482
REMARK  184  A    between atoms: _492  and  _494
REMARK  185  A    between atoms: _494  and  _495
REMARK  186  A    between atoms: _494  and  _497
REMARK  187  A    between atoms: _497  and  _498
REMARK  188  A    between atoms: _498  and  _499
REMARK  189  A    between atoms: _501  and  _503
REMARK  190  A    between atoms: _503  and  _504
REMARK  191  A    between atoms: _503  and  _506
REMARK  192  A    between atoms: _506  and  _507
REMARK  193  A    between atoms: _507  and  _508
REMARK                            x       y       z     vdW  Elec       q    Type
REMARK                         _______ _______ _______ _____ _____    ______ ____
ROOT
ATOM      1  CA  HIS A   2       2.920   0.929   4.551  0.00  0.00    +0.155 C 
ENDROOT
BRANCH   1   3
ATOM      2  C   GLU A   1       4.149  -1.136   4.309  0.00  0.00    +0.202 C 
ATOM      3  N   HIS A   2       3.305  -0.394   5.026  0.00  0.00    -0.300 N 
ATOM      4  H   HIS A   2       2.922  -0.758   5.922  0.00  0.00    +0.150 HD
ATOM      5  O   GLU A   1       4.725  -0.693   3.309  0.00  0.00    -0.277 OA
BRANCH   2   6
ATOM      6  CA  GLU A   1       4.374  -2.563   4.786  0.00  0.00    +0.013 C 
BRANCH   6   7
ATOM      7  N   GLU A   1       4.223  -3.540   3.717  0.00  0.00    +0.387 N 
ATOM      8  H1  GLU A   1       4.387  -4.495   4.096  0.00  0.00    -0.089 HD
ATOM      9  H2  GLU A   1       3.260  -3.480   3.328  0.00  0.00    -0.089 HD
ATOM     10  H3  GLU A   1       4.915  -3.340   2.966  0.00  0.00    -0.089 HD
ENDBRANCH   6   7
BRANCH   6  11
ATOM     11  CB  GLU A   1       5.771  -2.669   5.412  0.00  0.00    -0.001 C 
BRANCH  11  12
ATOM     12  CG  GLU A   1       5.890  -1.736   6.608  0.00  0.00    +0.112 C 
BRANCH  12  13
ATOM     13  CD  GLU A   1       7.170  -1.980   7.377  0.00  0.00    +0.365 C 
ATOM     14  OE2 GLU A   1       7.174  -1.637   8.570  0.00  0.00    -0.246 OA
ATOM     15  OE1 GLU A   1       8.133  -2.493   6.780  0.00  0.00    -0.246 OA
ENDBRANCH  12  13
ENDBRANCH  11  12
ENDBRANCH   6  11
ENDBRANCH   2   6
ENDBRANCH   1   3
BRANCH   1  16
ATOM     16  C   HIS A   2       2.862   1.962   5.662  0.00  0.00    +0.241 C 
ATOM     17  O   HIS A   2       3.087   1.650   6.825  0.00  0.00    -0.273 OA
ATOM     18  N   VAL A   3       2.558   3.197   5.290  0.00  0.00    -0.298 N 
ATOM     19  H   VAL A   3       2.568   3.433   4.277  0.00  0.00    +0.150 HD
BRANCH  18  20
ATOM     20  CA  VAL A   3       2.210   4.237   6.254  0.00  0.00    +0.137 C 
BRANCH  20  21
ATOM     21  CB  VAL A   3       3.150   5.451   6.271  0.00  0.00    +0.026 C 
ATOM     22  CG2 VAL A   3       4.612   5.020   6.351  0.00  0.00    +0.002 C 
ATOM     23  CG1 VAL A   3       2.942   6.331   5.045  0.00  0.00    +0.002 C 
ENDBRANCH  20  21
BRANCH  20  24
ATOM     24  C   VAL A   3       0.784   4.685   5.917  0.00  0.00    +0.227 C 
ATOM     25  O   VAL A   3       0.306   4.417   4.809  0.00  0.00    -0.286 OA
ENDBRANCH  20  24
ENDBRANCH  18  20
ENDBRANCH   1  16
BRANCH   1  26
ATOM     26  CB  HIS A   2       1.538   0.839   3.889  0.00  0.00    +0.076 C 
BRANCH  26  27
ATOM     27  CG  HIS A   2       0.490   0.333   4.837  0.00  0.00    +0.082 A 
ATOM     28  CD2 HIS A   2      -0.283   0.972   5.744  0.00  0.00    +0.115 A 
ATOM     29  NE2 HIS A   2      -1.084   0.041   6.352  0.00  0.00    -0.221 NA
ATOM     30  CE1 HIS A   2      -0.810  -1.138   5.830  0.00  0.00    +0.199 A 
ATOM     31  ND1 HIS A   2       0.135  -0.994   4.912  0.00  0.00    -0.227 NA
ENDBRANCH  26  27
ENDBRANCH   1  26
TORSDOF 12
REMARK  Name = ../refined-set-2016/1q54/1q54_pocket.pdb
REMARK  193 active torsions:
REMARK  status: ('A' for Active; 'I' for Inactive)
REMARK    1  A    between atoms: _1  and  _5
REMARK    2  A    between atoms: _5  and  _6
REMARK    3  A    between atoms: _5  and  _8
REMARK    4  A    between atoms: _8  and  _9
REMARK    5  A    between atoms: _9  and  _10
REMARK    6  A    between atoms: _13  and  _15
REMARK    7  A    between atoms: _15  and  _16
REMARK    8  A    between atoms: _15  and  _18
REMARK    9  A    between atoms: _18  and  _19
REMARK   10  A    between atoms: _24  and  _26
REMARK   11  A    between atoms: _26  and  _27
REMARK   12  A    between atoms: _26  and  _29
REMARK   13  A    between atoms: _32  and  _34
REMARK   14  A    between atoms: _34  and  _35
REMARK   15  A    between atoms: _34  and  _37
REMARK   16  A    between atoms: _37  and  _38
REMARK   17  A    between atoms: _38  and  _39
REMARK   18  A    between atoms: _39  and  _40
REMARK   19  A    between atoms: _40  and  _41
REMARK   20  A    between atoms: _45  and  _47
REMARK   21  A    between atoms: _47  and  _48
REMARK   22  A    between atoms: _47  and  _50
REMARK   23  A    between atoms: _50  and  _51
REMARK   24  A    between atoms: _55  and  MN_513
REMARK   25  A    between atoms: _56  and  _58
REMARK   26  A    between atoms: _58  and  _59
REMARK   27  A    between atoms: _58  and  _61
REMARK   28  A    between atoms: _61  and  _62
REMARK   29  A    between atoms: _66  and  MN_513
REMARK   30  A    between atoms: _67  and  _69
REMARK   31  A    between atoms: _69  and  _70
REMARK   32  A    between atoms: _69  and  _72
REMARK   33  A    between atoms: _72  and  _73
REMARK   34  A    between atoms: _76  and  _78
REMARK   35  A    between atoms: _78  and  _79
REMARK   36  A    between atoms: _82  and  _84
REMARK   37  A    between atoms: _84  and  _85
REMARK   38  A    between atoms: _84  and  _87
REMARK   39  A    between atoms: _87  and  _88
REMARK   40  A    between atoms: _94  and  _96
REMARK   41  A    between atoms: _96  and  _97
REMARK   42  A    between atoms: _96  and  _99
REMARK   43  A    between atoms: _99  and  _100
REMARK   44  A    between atoms: _102  and  _104
REMARK   45  A    between atoms: _104  and  _105
REMARK   46  A    between atoms: _104  and  _107
REMARK   47  A    between atoms: _107  and  _108
REMARK   48  A    between atoms: _110  and  _112
REMARK   49  A    between atoms: _112  and  _113
REMARK   50  A    between atoms: _112  and  _115
REMARK   51  A    between atoms: _115  and  _116
REMARK   52  A    between atoms: _126  and  _128
REMARK   53  A    between atoms: _128  and  _129
REMARK   54  A    between atoms: _128  and  _131
REMARK   55  A    between atoms: _131  and  _132
REMARK   56  A    between atoms: _135  and  _137
REMARK   57  A    between atoms: _137  and  _138
REMARK   58  A    between atoms: _137  and  _140
REMARK   59  A    between atoms: _140  and  _141
REMARK   60  A    between atoms: _141  and  _142
REMARK   61  A    between atoms: _142  and  _143
REMARK   62  A    between atoms: _152  and  _154
REMARK   63  A    between atoms: _154  and  _155
REMARK   64  A    between atoms: _158  and  _160
REMARK   65  A    between atoms: _160  and  _161
REMARK   66  A    between atoms: _160  and  _163
REMARK   67  A    between atoms: _163  and  _164
REMARK   68  A    between atoms: _164  and  _165
REMARK   69  A    between atoms: _165  and  _166
REMARK   70  A    between atoms: _166  and  _167
REMARK   71  A    between atoms: _171  and  _173
REMARK   72  A    between atoms: _173  and  _174
REMARK   73  A    between atoms: _173  and  _176
REMARK   74  A    between atoms: _176  and  _177
REMARK   75  A    between atoms: _177  and  _178
REMARK   76  A    between atoms: _178  and  _179
REMARK   77  A    between atoms: _179  and  _180
REMARK   78  A    between atoms: _184  and  _186
REMARK   79  A    between atoms: _186  and  _187
REMARK   80  A    between atoms: _190  and  _192
REMARK   81  A    between atoms: _192  and  _193
REMARK   82  A    between atoms: _192  and  _195
REMARK   83  A    between atoms: _195  and  _196
REMARK   84  A    between atoms: _206  and  _208
REMARK   85  A    between atoms: _208  and  _209
REMARK   86  A    between atoms: _208  and  _211
REMARK   87  A    between atoms: _211  and  _212
REMARK   88  A    between atoms: _215  and  _217
REMARK   89  A    between atoms: _217  and  _218
REMARK   90  A    between atoms: _217  and  _220
REMARK   91  A    between atoms: _220  and  _221
REMARK   92  A    between atoms: _226  and  _228
REMARK   93  A    between atoms: _228  and  _229
REMARK   94  A    between atoms: _228  and  _231
REMARK   95  A    between atoms: _231  and  _232
REMARK   96  A    between atoms: _234  and  _236
REMARK   97  A    between atoms: _236  and  _237
REMARK   98  A    between atoms: _236  and  _239
REMARK   99  A    between atoms: _242  and  _244
REMARK  100  A    between atoms: _244  and  _245
REMARK  101  A    between atoms: _248  and  _250
REMARK  102  A    between atoms: _250  and  _251
REMARK  103  A    between atoms: _253  and  _255
REMARK  104  A    between atoms: _255  and  _256
REMARK  105  A    between atoms: _255  and  _258
REMARK  106  A    between atoms: _258  and  _259
REMARK  107  A    between atoms: _263  and  MN_513
REMARK  108  A    between atoms: _265  and  _266
REMARK  109  A    between atoms: _271  and  _273
REMARK  110  A    between atoms: _273  and  _274
REMARK  111  A    between atoms: _273  and  _276
REMARK  112  A    between atoms: _276  and  _277
REMARK  113  A    between atoms: _277  and  _278
REMARK  114  A    between atoms: _283  and  _285
REMARK  115  A    between atoms: _285  and  _286
REMARK  116  A    between atoms: _285  and  _288
REMARK  117  A    between atoms: _288  and  _289
REMARK  118  A    between atoms: _289  and  _290
REMARK  119  A    between atoms: _290  and  _291
REMARK  120  A    between atoms: _300  and  _302
REMARK  121  A    between atoms: _302  and  _303
REMARK  122  A    between atoms: _302  and  _305
REMARK  123  A    between atoms: _305  and  _306
REMARK  124  A    between atoms: _306  and  _307
REMARK  125  A    between atoms: _307  and  _308
REMARK  126  A    between atoms: _317  and  _319
REMARK  127  A    between atoms: _319  and  _320
REMARK  128  A    between atoms: _319  and  _322
REMARK  129  A    between atoms: _322  and  _323
REMARK  130  A    between atoms: _328  and  _329
REMARK  131  A    between atoms: _331  and  _333
REMARK  132  A    between atoms: _333  and  _334
REMARK  133  A    between atoms: _333  and  _336
REMARK  134  A    between atoms: _336  and  _337
REMARK  135  A    between atoms: _337  and  _338
REMARK  136  A    between atoms: _338  and  _340
REMARK  137  A    between atoms: _340  and  MG_514
REMARK  138  A    between atoms: _341  and  _343
REMARK  139  A    between atoms: _343  and  _344
REMARK  140  A    between atoms: _343  and  _346
REMARK  141  A    between atoms: _346  and  _347
REMARK  142  A    between atoms: _353  and  _355
REMARK  143  A    between atoms: _355  and  _356
REMARK  144  A    between atoms: _355  and  _358
REMARK  145  A    between atoms: _358  and  _359
REMARK  146  A    between atoms: _364  and  _365
REMARK  147  A    between atoms: _367  and  _369
REMARK  148  A    between atoms: _369  and  _370
REMARK  149  A    between atoms: _373  and  _375
REMARK  150  A    between atoms: _375  and  _376
REMARK  151  A    between atoms: _375  and  _378
REMARK  152  A    between atoms: _381  and  _383
REMARK  153  A    between atoms: _393  and  _396
REMARK  154  A    between atoms: _396  and  _397
REMARK  155  A    between atoms: _404  and  _405
REMARK  156  A    between atoms: _412  and  _414
REMARK  157  A    between atoms: _414  and  _415
REMARK  158  A    between atoms: _414  and  _417
REMARK  159  A    between atoms: _420  and  _422
REMARK  160  A    between atoms: _422  and  _423
REMARK  161  A    between atoms: _422  and  _425
REMARK  162  A    between atoms: _428  and  _429
REMARK  163  A    between atoms: _434  and  _436
REMARK  164  A    between atoms: _436  and  _437
REMARK  165  A    between atoms: _436  and  _439
REMARK  166  A    between atoms: _442  and  _444
REMARK  167  A    between atoms: _444  and  _445
REMARK  168  A    between atoms: _444  and  _447
REMARK  169  A    between atoms: _447  and  _448
REMARK  170  A    between atoms: _451  and  _453
REMARK  171  A    between atoms: _453  and  _454
REMARK  172  A    between atoms: _453  and  _456
REMARK  173  A    between atoms: _456  and  _457
REMARK  174  A    between atoms: _457  and  _458
REMARK  175  A    between atoms: _461  and  _463
REMARK  176  A    between atoms: _463  and  _464
REMARK  177  A    between atoms: _463  and  _466
REMARK  178  A    between atoms: _466  and  _467
REMARK  179  A    between atoms: _470  and  _471
REMARK  180  A    between atoms: _476  and  _478
REMARK  181  A    between atoms: _478  and  _479
REMARK  182  A    between atoms: _478  and  _481
REMARK  183  A    between atoms: _481  and  _482
REMARK  184  A    between atoms: _492  and  _494
REMARK  185  A    between atoms: _494  and  _495
REMARK  186  A    between atoms: _494  and  _497
REMARK  187  A    between atoms: _497  and  _498
REMARK  188  A    between atoms: _498  and  _499
REMARK  189  A    between atoms: _501  and  _503
REMARK  190  A    between atoms: _503  and  _504
REMARK  191  A    between atoms: _503  and  _506
REMARK  192  A    between atoms: _506  and  _507
REMARK  193  A    between atoms: _507  and  _508
REMARK                            x       y       z     vdW  Elec       q    Type
REMARK                         _______ _______ _______ _____ _____    ______ ____
ROOT
ATOM      1  CG  LYS A   1       7.895   2.541   5.995  0.00  0.00    -0.000 C 
ENDROOT
BRANCH   1   2
ATOM      2  CB  LYS A   1       7.206   1.803   4.847  0.00  0.00    +0.025 C 
BRANCH   2   3
ATOM      3  CA  LYS A   1       6.816   2.724   3.688  0.00  0.00    +0.133 C 
BRANCH   3   4
ATOM      4  N   LYS A   1       6.060   1.995   2.674  0.00  0.00    -0.239 NA
ATOM      5  H   LYS A   1       5.919   0.968   2.757  0.00  0.00    +0.142 HD
ENDBRANCH   3   4
BRANCH   3   6
ATOM      6  C   LYS A   1       8.061   3.400   3.115  0.00  0.00    +0.224 C 
ATOM      7  O   LYS A   1       8.317   4.570   3.400  0.00  0.00    -0.287 OA
ENDBRANCH   3   6
ENDBRANCH   2   3
ENDBRANCH   1   2
BRANCH   1   8
ATOM      8  CD  LYS A   1       7.970   1.677   7.243  0.00  0.00    -0.024 C 
BRANCH   8   9
ATOM      9  CE  LYS A   1       9.161   0.728   7.188  0.00  0.00    -0.086 C 
BRANCH   9  10
ATOM     10  NZ  LYS A   1       9.551   0.252   8.548  0.00  0.00    +0.380 N 
ATOM     11  HZ1 LYS A   1       9.809   1.068   9.139  0.00  0.00    -0.089 HD
ATOM     12  HZ2 LYS A   1       8.750  -0.251   8.981  0.00  0.00    -0.089 HD
ATOM     13  HZ3 LYS A   1      10.364  -0.391   8.469  0.00  0.00    -0.089 HD
ENDBRANCH   9  10
ENDBRANCH   8   9
ENDBRANCH   1   8
TORSDOF 7
REMARK  Name = ../refined-set-2016/1q54/1q54_pocket.pdb
REMARK  193 active torsions:
REMARK  status: ('A' for Active; 'I' for Inactive)
REMARK    1  A    between atoms: _1  and  _5
REMARK    2  A    between atoms: _5  and  _6
REMARK    3  A    between atoms: _5  and  _8
REMARK    4  A    between atoms: _8  and  _9
REMARK    5  A    between atoms: _9  and  _10
REMARK    6  A    between atoms: _13  and  _15
REMARK    7  A    between atoms: _15  and  _16
REMARK    8  A    between atoms: _15  and  _18
REMARK    9  A    between atoms: _18  and  _19
REMARK   10  A    between atoms: _24  and  _26
REMARK   11  A    between atoms: _26  and  _27
REMARK   12  A    between atoms: _26  and  _29
REMARK   13  A    between atoms: _32  and  _34
REMARK   14  A    between atoms: _34  and  _35
REMARK   15  A    between atoms: _34  and  _37
REMARK   16  A    between atoms: _37  and  _38
REMARK   17  A    between atoms: _38  and  _39
REMARK   18  A    between atoms: _39  and  _40
REMARK   19  A    between atoms: _40  and  _41
REMARK   20  A    between atoms: _45  and  _47
REMARK   21  A    between atoms: _47  and  _48
REMARK   22  A    between atoms: _47  and  _50
REMARK   23  A    between atoms: _50  and  _51
REMARK   24  A    between atoms: _55  and  MN_513
REMARK   25  A    between atoms: _56  and  _58
REMARK   26  A    between atoms: _58  and  _59
REMARK   27  A    between atoms: _58  and  _61
REMARK   28  A    between atoms: _61  and  _62
REMARK   29  A    between atoms: _66  and  MN_513
REMARK   30  A    between atoms: _67  and  _69
REMARK   31  A    between atoms: _69  and  _70
REMARK   32  A    between atoms: _69  and  _72
REMARK   33  A    between atoms: _72  and  _73
REMARK   34  A    between atoms: _76  and  _78
REMARK   35  A    between atoms: _78  and  _79
REMARK   36  A    between atoms: _82  and  _84
REMARK   37  A    between atoms: _84  and  _85
REMARK   38  A    between atoms: _84  and  _87
REMARK   39  A    between atoms: _87  and  _88
REMARK   40  A    between atoms: _94  and  _96
REMARK   41  A    between atoms: _96  and  _97
REMARK   42  A    between atoms: _96  and  _99
REMARK   43  A    between atoms: _99  and  _100
REMARK   44  A    between atoms: _102  and  _104
REMARK   45  A    between atoms: _104  and  _105
REMARK   46  A    between atoms: _104  and  _107
REMARK   47  A    between atoms: _107  and  _108
REMARK   48  A    between atoms: _110  and  _112
REMARK   49  A    between atoms: _112  and  _113
REMARK   50  A    between atoms: _112  and  _115
REMARK   51  A    between atoms: _115  and  _116
REMARK   52  A    between atoms: _126  and  _128
REMARK   53  A    between atoms: _128  and  _129
REMARK   54  A    between atoms: _128  and  _131
REMARK   55  A    between atoms: _131  and  _132
REMARK   56  A    between atoms: _135  and  _137
REMARK   57  A    between atoms: _137  and  _138
REMARK   58  A    between atoms: _137  and  _140
REMARK   59  A    between atoms: _140  and  _141
REMARK   60  A    between atoms: _141  and  _142
REMARK   61  A    between atoms: _142  and  _143
REMARK   62  A    between atoms: _152  and  _154
REMARK   63  A    between atoms: _154  and  _155
REMARK   64  A    between atoms: _158  and  _160
REMARK   65  A    between atoms: _160  and  _161
REMARK   66  A    between atoms: _160  and  _163
REMARK   67  A    between atoms: _163  and  _164
REMARK   68  A    between atoms: _164  and  _165
REMARK   69  A    between atoms: _165  and  _166
REMARK   70  A    between atoms: _166  and  _167
REMARK   71  A    between atoms: _171  and  _173
REMARK   72  A    between atoms: _173  and  _174
REMARK   73  A    between atoms: _173  and  _176
REMARK   74  A    between atoms: _176  and  _177
REMARK   75  A    between atoms: _177  and  _178
REMARK   76  A    between atoms: _178  and  _179
REMARK   77  A    between atoms: _179  and  _180
REMARK   78  A    between atoms: _184  and  _186
REMARK   79  A    between atoms: _186  and  _187
REMARK   80  A    between atoms: _190  and  _192
REMARK   81  A    between atoms: _192  and  _193
REMARK   82  A    between atoms: _192  and  _195
REMARK   83  A    between atoms: _195  and  _196
REMARK   84  A    between atoms: _206  and  _208
REMARK   85  A    between atoms: _208  and  _209
REMARK   86  A    between atoms: _208  and  _211
REMARK   87  A    between atoms: _211  and  _212
REMARK   88  A    between atoms: _215  and  _217
REMARK   89  A    between atoms: _217  and  _218
REMARK   90  A    between atoms: _217  and  _220
REMARK   91  A    between atoms: _220  and  _221
REMARK   92  A    between atoms: _226  and  _228
REMARK   93  A    between atoms: _228  and  _229
REMARK   94  A    between atoms: _228  and  _231
REMARK   95  A    between atoms: _231  and  _232
REMARK   96  A    between atoms: _234  and  _236
REMARK   97  A    between atoms: _236  and  _237
REMARK   98  A    between atoms: _236  and  _239
REMARK   99  A    between atoms: _242  and  _244
REMARK  100  A    between atoms: _244  and  _245
REMARK  101  A    between atoms: _248  and  _250
REMARK  102  A    between atoms: _250  and  _251
REMARK  103  A    between atoms: _253  and  _255
REMARK  104  A    between atoms: _255  and  _256
REMARK  105  A    between atoms: _255  and  _258
REMARK  106  A    between atoms: _258  and  _259
REMARK  107  A    between atoms: _263  and  MN_513
REMARK  108  A    between atoms: _265  and  _266
REMARK  109  A    between atoms: _271  and  _273
REMARK  110  A    between atoms: _273  and  _274
REMARK  111  A    between atoms: _273  and  _276
REMARK  112  A    between atoms: _276  and  _277
REMARK  113  A    between atoms: _277  and  _278
REMARK  114  A    between atoms: _283  and  _285
REMARK  115  A    between atoms: _285  and  _286
REMARK  116  A    between atoms: _285  and  _288
REMARK  117  A    between atoms: _288  and  _289
REMARK  118  A    between atoms: _289  and  _290
REMARK  119  A    between atoms: _290  and  _291
REMARK  120  A    between atoms: _300  and  _302
REMARK  121  A    between atoms: _302  and  _303
REMARK  122  A    between atoms: _302  and  _305
REMARK  123  A    between atoms: _305  and  _306
REMARK  124  A    between atoms: _306  and  _307
REMARK  125  A    between atoms: _307  and  _308
REMARK  126  A    between atoms: _317  and  _319
REMARK  127  A    between atoms: _319  and  _320
REMARK  128  A    between atoms: _319  and  _322
REMARK  129  A    between atoms: _322  and  _323
REMARK  130  A    between atoms: _328  and  _329
REMARK  131  A    between atoms: _331  and  _333
REMARK  132  A    between atoms: _333  and  _334
REMARK  133  A    between atoms: _333  and  _336
REMARK  134  A    between atoms: _336  and  _337
REMARK  135  A    between atoms: _337  and  _338
REMARK  136  A    between atoms: _338  and  _340
REMARK  137  A    between atoms: _340  and  MG_514
REMARK  138  A    between atoms: _341  and  _343
REMARK  139  A    between atoms: _343  and  _344
REMARK  140  A    between atoms: _343  and  _346
REMARK  141  A    between atoms: _346  and  _347
REMARK  142  A    between atoms: _353  and  _355
REMARK  143  A    between atoms: _355  and  _356
REMARK  144  A    between atoms: _355  and  _358
REMARK  145  A    between atoms: _358  and  _359
REMARK  146  A    between atoms: _364  and  _365
REMARK  147  A    between atoms: _367  and  _369
REMARK  148  A    between atoms: _369  and  _370
REMARK  149  A    between atoms: _373  and  _375
REMARK  150  A    between atoms: _375  and  _376
REMARK  151  A    between atoms: _375  and  _378
REMARK  152  A    between atoms: _381  and  _383
REMARK  153  A    between atoms: _393  and  _396
REMARK  154  A    between atoms: _396  and  _397
REMARK  155  A    between atoms: _404  and  _405
REMARK  156  A    between atoms: _412  and  _414
REMARK  157  A    between atoms: _414  and  _415
REMARK  158  A    between atoms: _414  and  _417
REMARK  159  A    between atoms: _420  and  _422
REMARK  160  A    between atoms: _422  and  _423
REMARK  161  A    between atoms: _422  and  _425
REMARK  162  A    between atoms: _428  and  _429
REMARK  163  A    between atoms: _434  and  _436
REMARK  164  A    between atoms: _436  and  _437
REMARK  165  A    between atoms: _436  and  _439
REMARK  166  A    between atoms: _442  and  _444
REMARK  167  A    between atoms: _444  and  _445
REMARK  168  A    between atoms: _444  and  _447
REMARK  169  A    between atoms: _447  and  _448
REMARK  170  A    between atoms: _451  and  _453
REMARK  171  A    between atoms: _453  and  _454
REMARK  172  A    between atoms: _453  and  _456
REMARK  173  A    between atoms: _456  and  _457
REMARK  174  A    between atoms: _457  and  _458
REMARK  175  A    between atoms: _461  and  _463
REMARK  176  A    between atoms: _463  and  _464
REMARK  177  A    between atoms: _463  and  _466
REMARK  178  A    between atoms: _466  and  _467
REMARK  179  A    between atoms: _470  and  _471
REMARK  180  A    between atoms: _476  and  _478
REMARK  181  A    between atoms: _478  and  _479
REMARK  182  A    between atoms: _478  and  _481
REMARK  183  A    between atoms: _481  and  _482
REMARK  184  A    between atoms: _492  and  _494
REMARK  185  A    between atoms: _494  and  _495
REMARK  186  A    between atoms: _494  and  _497
REMARK  187  A    between atoms: _497  and  _498
REMARK  188  A    between atoms: _498  and  _499
REMARK  189  A    between atoms: _501  and  _503
REMARK  190  A    between atoms: _503  and  _504
REMARK  191  A    between atoms: _503  and  _506
REMARK  192  A    between atoms: _506  and  _507
REMARK  193  A    between atoms: _507  and  _508
REMARK                            x       y       z     vdW  Elec       q    Type
REMARK                         _______ _______ _______ _____ _____    ______ ____
ROOT
ATOM      1 MN   UNK A   4       7.143   8.319   8.886  0.00  0.00    +0.000 Mn
ATOM      2  O   UNK A   4       6.692   9.065  10.871  0.00  0.00    +0.000 OA
ATOM      3  C   UNK A   4       6.252  10.013  11.557  0.00  0.00    +0.000 C 
ATOM      4  O   UNK A   4       6.716  10.293  12.687  0.00  0.00    +0.000 OA
ATOM      5  C   UNK A   4       5.089  10.834  11.038  0.00  0.00    +0.000 C 
ATOM      6  C   UNK A   4       4.445  11.727  12.085  0.00  0.00    +0.000 C 
ATOM      7  C   UNK A   4       3.499  12.785  11.476  0.00  0.00    +0.000 C 
ATOM      8  N   UNK A   4       4.277  13.794  10.799  0.00  0.00    +0.000 N 
ATOM      9  H   UNK A   4       4.659  14.602  11.331  0.00  0.00    +0.000 HD
ATOM     10  C   ALA A   3       4.504  13.689   9.495  0.00  0.00    +0.000 C 
ATOM     11  CA  ALA A   3       5.657  14.514   8.960  0.00  0.00    +0.000 C 
ATOM     12  N   ALA A   3       6.832  13.641   8.831  0.00  0.00    +0.000 N 
ATOM     13  C   UNK A   2       8.055  14.116   8.984  0.00  0.00    +0.000 C 
ATOM     14  O   UNK A   2       8.313  15.268   9.333  0.00  0.00    +0.000 OA
ATOM     15  C   UNK A   2       9.180  13.127   8.657  0.00  0.00    +0.000 C 
ATOM     16  C   UNK A   2       9.660  12.418   9.916  0.00  0.00    +0.000 C 
ATOM     17  C   UNK A   2      10.197  11.016   9.658  0.00  0.00    +0.000 C 
ATOM     18  C   UNK A   2       9.079  10.000   9.500  0.00  0.00    +0.000 C 
ATOM     19  H   ALA A   3       6.698  12.632   8.616  0.00  0.00    +0.000 HD
ATOM     20  O   ALA A   3       3.849  12.935   8.775  0.00  0.00    +0.000 OA
ATOM     21  O   UNK A   2       9.305   8.805   9.788  0.00  0.00    +0.000 OA
ATOM     22  O   UNK A   2       7.996  10.333   8.969  0.00  0.00    +0.000 OA
ENDROOT
BRANCH   1  23
ATOM     23  N   UNK A   7       6.575   6.455   9.496  0.00  0.00    +0.000 N 
ATOM     24  C   UNK A   7       5.353   5.869   9.723  0.00  0.00    +0.000 A 
ATOM     25  C   UNK A   7       5.539   4.554   9.947  0.00  0.00    +0.000 A 
ATOM     26  N   UNK A   7       6.906   4.356   9.855  0.00  0.00    +0.000 NA
ATOM     27  C   UNK A   7       7.503   5.509   9.590  0.00  0.00    +0.000 A 
BRANCH  25  28
ATOM     28  C   UNK A   7       4.587   3.449  10.238  0.00  0.00    +0.000 C 
BRANCH  28  29
ATOM     29  C   UNK A   7       4.149   3.339  11.703  0.00  0.00    +0.000 C 
BRANCH  29  30
ATOM     30  C   UNK A   7       3.064   2.273  11.814  0.00  0.00    +0.000 C 
ATOM     31  N   PRO A   8       1.977   2.603  12.508  0.00  0.00    +0.000 N 
ATOM     32  CD  PRO A   8       1.688   3.861  13.205  0.00  0.00    +0.000 C 
ATOM     33  CG  PRO A   8       0.559   3.483  14.137  0.00  0.00    +0.000 C 
ATOM     34  CB  PRO A   8      -0.160   2.366  13.461  0.00  0.00    +0.000 C 
ATOM     35  CA  PRO A   8       0.884   1.633  12.621  0.00  0.00    +0.000 C 
ATOM     36  O   UNK A   7       3.216   1.173  11.267  0.00  0.00    +0.000 OA
BRANCH  35  37
ATOM     37  C   PRO A   8       0.354   1.307  11.228  0.00  0.00    +0.000 C 
ATOM     38  N   GLN A   9       0.002   0.050  10.998  0.00  0.00    +0.000 N 
ATOM     39  H   GLN A   9       0.165  -0.676  11.724  0.00  0.00    +0.000 HD
ATOM     40  O   PRO A   8       0.284   2.192  10.368  0.00  0.00    +0.000 OA
BRANCH  38  41
ATOM     41  CA  GLN A   9      -0.613  -0.315   9.729  0.00  0.00    +0.000 C 
BRANCH  41  42
ATOM     42  C   GLN A   9      -2.135  -0.186   9.813  0.00  0.00    +0.000 C 
ATOM     43  O   GLN A   9      -2.709   0.007  10.885  0.00  0.00    +0.000 OA
ENDBRANCH  41  42
BRANCH  41  44
ATOM     44  CB  GLN A   9      -0.253  -1.748   9.326  0.00  0.00    +0.000 C 
BRANCH  44  45
ATOM     45  CG  GLN A   9       1.238  -2.038   9.346  0.00  0.00    +0.000 C 
BRANCH  45  46
ATOM     46  CD  GLN A   9       1.999  -1.193   8.339  0.00  0.00    +0.000 C 
ATOM     47  OE1 GLN A   9       2.514  -0.122   8.673  0.00  0.00    +0.000 OA
ATOM     48  NE2 GLN A   9       2.053  -1.703   7.121  0.00  0.00    +0.000 N 
ATOM     49 HE21 GLN A   9       1.593  -2.613   6.917  0.00  0.00    +0.000 HD
ATOM     50 HE22 GLN A   9       2.556  -1.194   6.366  0.00  0.00    +0.000 HD
ENDBRANCH  45  46
ENDBRANCH  44  45
ENDBRANCH  41  44
ENDBRANCH  38  41
ENDBRANCH  35  37
ENDBRANCH  29  30
BRANCH  29  51
ATOM     51  N   UNK A   7       5.293   3.028  12.531  0.00  0.00    +0.000 N 
ATOM     52  C   SER A   6       5.860   3.853  13.399  0.00  0.00    +0.000 C 
ATOM     53  O   SER A   6       5.401   4.942  13.739  0.00  0.00    +0.000 OA
ATOM     54  H   UNK A   7       5.705   2.078  12.437  0.00  0.00    +0.000 HD
BRANCH  52  55
ATOM     55  CA  SER A   6       7.161   3.319  13.973  0.00  0.00    +0.000 C 
BRANCH  55  56
ATOM     56  N   SER A   6       7.592   4.038  15.154  0.00  0.00    +0.000 N 
ATOM     57  C   SER A   5       8.765   3.707  15.688  0.00  0.00    +0.000 C 
ATOM     58  O   SER A   5       9.482   2.849  15.164  0.00  0.00    +0.000 OA
ATOM     59  H   SER A   6       7.004   4.788  15.571  0.00  0.00    +0.000 HD
BRANCH  57  60
ATOM     60  CA  SER A   5       9.163   4.408  16.972  0.00  0.00    +0.000 C 
ATOM     61  CB  SER A   5       9.641   5.829  16.759  0.00  0.00    +0.000 C 
BRANCH  60  62
ATOM     62  N   SER A   5      10.205   3.612  17.630  0.00  0.00    +0.000 N 
ATOM     63  C   UNK A   4      10.250   3.579  18.958  0.00  0.00    +0.000 C 
ATOM     64  O   UNK A   4       9.484   4.223  19.673  0.00  0.00    +0.000 OA
ATOM     65  H   SER A   5      10.899   3.081  17.065  0.00  0.00    +0.000 HD
BRANCH  63  66
ATOM     66  C   UNK A   4      11.336   2.706  19.566  0.00  0.00    +0.000 C 
BRANCH  66  67
ATOM     67  N   UNK A   4      11.886   3.387  20.746  0.00  0.00    +0.000 N 
ATOM     68  H   UNK A   4      11.360   4.154  21.211  0.00  0.00    +0.000 HD
ATOM     69  C   ALA A   3      13.068   3.000  21.203  0.00  0.00    +0.000 C 
ATOM     70  O   ALA A   3      13.727   2.158  20.584  0.00  0.00    +0.000 OA
BRANCH  69  71
ATOM     71  CA  ALA A   3      13.583   3.578  22.506  0.00  0.00    +0.000 C 
BRANCH  71  72
ATOM     72  N   ALA A   3      13.460   5.018  22.680  0.00  0.00    +0.000 N 
ATOM     73  H   ALA A   3      12.905   5.376  23.483  0.00  0.00    +0.000 HD
ATOM     74  C   UNK A   2      14.024   5.892  21.859  0.00  0.00    +0.000 C 
ATOM     75  O   UNK A   2      14.492   5.525  20.776  0.00  0.00    +0.000 OA
BRANCH  74  76
ATOM     76  C   UNK A   2      14.112   7.347  22.307  0.00  0.00    +0.000 C 
BRANCH  76  77
ATOM     77  N   UNK A   2      14.699   8.191  21.247  0.00  0.00    +0.000 N 
ATOM     78  C   UNK A   1      16.011   8.070  21.021  0.00  0.00    +0.000 C 
ATOM     79  O   UNK A   1      16.660   7.269  21.706  0.00  0.00    +0.000 OA
ATOM     80  H   UNK A   2      14.115   8.853  20.698  0.00  0.00    +0.000 HD
BRANCH  78  81
ATOM     81  C   UNK A   1      16.671   8.907  19.942  0.00  0.00    +0.000 C 
BRANCH  81  82
ATOM     82  N   UNK A   1      18.082   8.525  19.755  0.00  0.00    +0.000 NA
ATOM     83  H   UNK A   1      18.393   7.561  19.990  0.00  0.00    +0.000 HD
ENDBRANCH  81  82
BRANCH  81  84
ATOM     84  C   UNK A   1      15.928   8.776  18.593  0.00  0.00    +0.000 C 
ATOM     85  C   UNK A   1      16.062   7.345  18.070  0.00  0.00    +0.000 C 
BRANCH  84  86
ATOM     86  O   UNK A   1      14.530   9.024  18.736  0.00  0.00    +0.000 OA
ATOM     87  H   UNK A   1      14.088   8.932  17.855  0.00  0.00    +0.000 HD
ENDBRANCH  84  86
ENDBRANCH  81  84
ENDBRANCH  78  81
ENDBRANCH  76  77
BRANCH  76  88
ATOM     88  C   UNK A   2      12.750   7.886  22.750  0.00  0.00    +0.000 C 
BRANCH  88  89
ATOM     89  C   UNK A   2      11.816   8.093  21.579  0.00  0.00    +0.000 C 
ATOM     90  O   UNK A   2      10.937   7.278  21.311  0.00  0.00    +0.000 OA
ATOM     91  N   UNK A   2      12.000   9.184  20.858  0.00  0.00    +0.000 N 
ATOM     92  H   UNK A   2      12.754   9.854  21.112  0.00  0.00    +0.000 HD
ATOM     93  H   UNK A   2      11.391   9.373  20.036  0.00  0.00    +0.000 HD
ENDBRANCH  88  89
ENDBRANCH  76  88
ENDBRANCH  74  76
ENDBRANCH  71  72
BRANCH  71  94
ATOM     94  CB  ALA A   3      12.854   2.855  23.655  0.00  0.00    +0.000 C 
BRANCH  94  95
ATOM     95  O   ALA A   3      13.151   3.536  24.874  0.00  0.00    +0.000 OA
ATOM     96  H   ALA A   3      14.129   3.521  25.029  0.00  0.00    +0.000 HD
ENDBRANCH  94  95
ENDBRANCH  71  94
ENDBRANCH  69  71
ENDBRANCH  66  67
BRANCH  66  97
ATOM     97  C   UNK A   4      10.765   1.325  19.909  0.00  0.00    +0.000 C 
ATOM     98  C   UNK A   4       9.618   1.452  20.904  0.00  0.00    +0.000 C 
ATOM     99  C   UNK A   4      10.267   0.580  18.670  0.00  0.00    +0.000 C 
ENDBRANCH  66  97
ENDBRANCH  63  66
ENDBRANCH  60  62
ENDBRANCH  57  60
ENDBRANCH  55  56
ENDBRANCH  52  55
ENDBRANCH  29  51
ENDBRANCH  28  29
ENDBRANCH  25  28
ENDBRANCH   1  23
BRANCH   1 100
ATOM    100  N   UNK A   4       5.363   9.000   8.123  0.00  0.00    +0.000 N 
ATOM    101  C   UNK A   4       4.078   8.518   8.243  0.00  0.00    +0.000 A 
ATOM    102  C   UNK A   4       3.279   9.255   7.438  0.00  0.00    +0.000 A 
ATOM    103  N   UNK A   4       4.114  10.173   6.848  0.00  0.00    +0.000 NA
ATOM    104  C   UNK A   4       5.357  10.006   7.270  0.00  0.00    +0.000 A 
BRANCH 102 105
ATOM    105  C   UNK A   4       1.806   9.182   7.165  0.00  0.00    +0.000 C 
BRANCH 105 106
ATOM    106  C   UNK A   4       0.982  10.174   7.984  0.00  0.00    +0.000 C 
BRANCH 106 107
ATOM    107  C   UNK A   4       0.938   9.786   9.456  0.00  0.00    +0.000 C 
ATOM    108  O   UNK A   4       1.246  10.585  10.339  0.00  0.00    +0.000 OA
ATOM    109  N   UNK A   2       0.527   8.557   9.728  0.00  0.00    +0.000 N 
ATOM    110  H   UNK A   2       0.317   7.909   8.942  0.00  0.00    +0.000 HD
BRANCH 109 111
ATOM    111  C   UNK A   2       0.361   8.087  11.099  0.00  0.00    +0.000 C 
BRANCH 111 112
ATOM    112  C   UNK A   2       1.583   7.341  11.618  0.00  0.00    +0.000 C 
ATOM    113  N   ALA A   3       1.939   7.623  12.869  0.00  0.00    +0.000 N 
ATOM    114  H   ALA A   3       1.360   8.289  13.420  0.00  0.00    +0.000 HD
ATOM    115  O   UNK A   2       2.196   6.527  10.924  0.00  0.00    +0.000 OA
BRANCH 113 116
ATOM    116  CA  ALA A   3       3.116   7.027  13.492  0.00  0.00    +0.000 C 
ATOM    117  CB  ALA A   3       4.347   7.876  13.191  0.00  0.00    +0.000 C 
BRANCH 116 118
ATOM    118  C   ALA A   3       2.951   6.890  14.997  0.00  0.00    +0.000 C 
ATOM    119  N   UNK A   4       3.948   6.270  15.641  0.00  0.00    +0.000 N 
ATOM    120  H   UNK A   4       4.722   5.830  15.104  0.00  0.00    +0.000 HD
ATOM    121  O   ALA A   3       1.966   7.334  15.581  0.00  0.00    +0.000 OA
BRANCH 119 122
ATOM    122  C   UNK A   4       3.945   6.214  17.092  0.00  0.00    +0.000 C 
BRANCH 122 123
ATOM    123  C   UNK A   4       5.373   6.476  17.569  0.00  0.00    +0.000 C 
ATOM    124  N   SER A   5       5.487   6.830  18.832  0.00  0.00    +0.000 N 
ATOM    125  H   SER A   5       4.642   7.125  19.361  0.00  0.00    +0.000 HD
ATOM    126  O   UNK A   4       6.296   6.258  16.800  0.00  0.00    +0.000 OA
BRANCH 124 127
ATOM    127  CA  SER A   5       6.786   6.813  19.500  0.00  0.00    +0.000 C 
BRANCH 127 128
ATOM    128  C   SER A   5       6.632   6.215  20.889  0.00  0.00    +0.000 C 
ATOM    129  O   SER A   5       5.631   6.461  21.569  0.00  0.00    +0.000 OA
ATOM    130  N   SER A   6       7.599   5.419  21.345  0.00  0.00    +0.000 N 
ATOM    131  H   SER A   6       8.415   5.191  20.742  0.00  0.00    +0.000 HD
BRANCH 130 132
ATOM    132  CA  SER A   6       7.508   4.871  22.690  0.00  0.00    +0.000 C 
BRANCH 132 133
ATOM    133  C   SER A   6       8.863   4.985  23.394  0.00  0.00    +0.000 C 
ATOM    134  N   UNK A   7       8.799   5.080  24.706  0.00  0.00    +0.000 N 
ATOM    135  H   UNK A   7       7.855   5.097  25.143  0.00  0.00    +0.000 HD
ATOM    136  O   SER A   6       9.913   5.000  22.756  0.00  0.00    +0.000 OA
BRANCH 134 137
ATOM    137  C   UNK A   7       9.953   5.163  25.590  0.00  0.00    +0.000 C 
BRANCH 137 138
ATOM    138  C   UNK A   7       9.984   3.914  26.462  0.00  0.00    +0.000 C 
ATOM    139  O   UNK A   7       8.959   3.667  27.121  0.00  0.00    +0.000 OA
ENDBRANCH 137 138
BRANCH 137 140
ATOM    140  C   UNK A   7       9.877   6.421  26.444  0.00  0.00    +0.000 C 
BRANCH 140 141
ATOM    141  C   UNK A   7       9.977   7.718  25.696  0.00  0.00    +0.000 A 
ATOM    142  C   UNK A   7      10.999   8.715  25.833  0.00  0.00    +0.000 A 
ATOM    143  C   UNK A   7      12.146   8.819  26.633  0.00  0.00    +0.000 A 
ATOM    144  C   UNK A   7      12.938   9.947  26.511  0.00  0.00    +0.000 A 
ATOM    145  C   UNK A   7      12.599  10.964  25.609  0.00  0.00    +0.000 A 
ATOM    146  C   UNK A   7      11.479  10.894  24.817  0.00  0.00    +0.000 A 
ATOM    147  C   UNK A   7      10.688   9.758  24.941  0.00  0.00    +0.000 A 
ATOM    148  N   UNK A   7       9.532   9.416  24.288  0.00  0.00    +0.000 N 
ATOM    149  H   UNK A   7       9.052   9.988  23.564  0.00  0.00    +0.000 HD
ATOM    150  C   UNK A   7       9.115   8.194  24.749  0.00  0.00    +0.000 A 
ENDBRANCH 140 141
ENDBRANCH 137 140
ENDBRANCH 134 137
ENDBRANCH 132 133
BRANCH 132 151
ATOM    151  CB  SER A   6       7.029   3.422  22.665  0.00  0.00    +0.000 C 
BRANCH 151 152
ATOM    152  OG  SER A   6       6.747   2.957  23.982  0.00  0.00    +0.000 OA
ATOM    153  H   SER A   6       6.039   3.520  24.385  0.00  0.00    +0.000 HD
ENDBRANCH 151 152
ENDBRANCH 132 151
ENDBRANCH 130 132
ENDBRANCH 127 128
BRANCH 127 154
ATOM    154  CB  SER A   5       7.373   8.223  19.555  0.00  0.00    +0.000 C 
BRANCH 154 155
ATOM    155  OG  SER A   5       8.676   8.213  20.113  0.00  0.00    +0.000 OA
ATOM    156  H   SER A   5       8.637   7.850  21.033  0.00  0.00    +0.000 HD
ENDBRANCH 154 155
ENDBRANCH 127 154
ENDBRANCH 124 127
ENDBRANCH 122 123
BRANCH 122 157
ATOM    157  C   UNK A   4       3.474   4.888  17.695  0.00  0.00    +0.000 C 
BRANCH 157 158
ATOM    158  C   UNK A   4       4.396   3.699  17.488  0.00  0.00    +0.000 A 
ATOM    159  C   UNK A   4       5.400   3.310  18.368  0.00  0.00    +0.000 A 
ATOM    160  C   UNK A   4       6.227   2.240  18.117  0.00  0.00    +0.000 A 
ATOM    161  C   UNK A   4       6.046   1.508  16.961  0.00  0.00    +0.000 A 
ATOM    162  C   UNK A   4       5.049   1.858  16.072  0.00  0.00    +0.000 A 
ATOM    163  C   UNK A   4       4.229   2.940  16.339  0.00  0.00    +0.000 A 
ENDBRANCH 157 158
ENDBRANCH 122 157
ENDBRANCH 119 122
ENDBRANCH 116 118
ENDBRANCH 113 116
ENDBRANCH 111 112
BRANCH 111 164
ATOM    164  C   UNK A   2      -0.857   7.168  11.192  0.00  0.00    +0.000 C 
BRANCH 164 165
ATOM    165  C   UNK A   2      -1.384   6.880  12.600  0.00  0.00    +0.000 C 
ATOM    166  C   UNK A   2      -1.795   8.156  13.317  0.00  0.00    +0.000 C 
ATOM    167  C   UNK A   2      -2.546   5.892  12.529  0.00  0.00    +0.000 C 
ENDBRANCH 164 165
ENDBRANCH 111 164
ENDBRANCH 109 111
ENDBRANCH 106 107
BRANCH 106 168
ATOM    168  N   UNK A   4       1.484  11.535   7.811  0.00  0.00    +0.000 NA
ATOM    169  H   UNK A   1       2.272  11.883   8.394  0.00  0.00    +0.000 HD
ENDBRANCH 106 168
ENDBRANCH 105 106
ENDBRANCH 102 105
ENDBRANCH   1 100
BRANCH   1 172
ATOM    170  C   UNK A   4       9.453   8.127   5.476  0.00  0.00    +0.000 A 
ATOM    171  C   UNK A   4       8.899   8.839   6.479  0.00  0.00    +0.000 A 
ATOM    172  N   UNK A   4       8.046   8.006   7.173  0.00  0.00    +0.000 N 
ATOM    173  C   UNK A   4       8.083   6.820   6.594  0.00  0.00    +0.000 A 
ATOM    174  N   UNK A   4       8.925   6.863   5.562  0.00  0.00    +0.000 NA
BRANCH 170 175
ATOM    175  C   UNK A   4      10.438   8.553   4.420  0.00  0.00    +0.000 C 
BRANCH 175 176
ATOM    176  C   UNK A   4       9.703   9.233   3.272  0.00  0.00    +0.000 C 
BRANCH 176 177
ATOM    177  N   UNK A   4       8.832   8.258   2.591  0.00  0.00    +0.000 NA
ATOM    178  H   UNK A   1       9.194   7.320   2.324  0.00  0.00    +0.000 HD
ENDBRANCH 176 177
BRANCH 176 179
ATOM    179  C   UNK A   4      10.638   9.856   2.249  0.00  0.00    +0.000 C 
ATOM    180  O   UNK A   1      11.539   9.233   1.697  0.00  0.00    +0.000 OA
ENDBRANCH 176 179
ENDBRANCH 175 176
ENDBRANCH 170 175
ENDBRANCH   1 172
BRANCH  15 181
ATOM    181  N   UNK A   2      10.209  13.885   7.957  0.00  0.00    +0.000 N 
ATOM    182  H   UNK A   2      10.728  14.622   8.476  0.00  0.00    +0.000 HD
ATOM    183  C   UNK A   1      10.510  13.669   6.679  0.00  0.00    +0.000 C 
ATOM    184  O   UNK A   1      10.132  12.663   6.085  0.00  0.00    +0.000 OA
BRANCH 183 185
ATOM    185  C   UNK A   1      11.342  14.750   5.995  0.00  0.00    +0.000 C 
BRANCH 185 186
ATOM    186  C   UNK A   1      10.375  15.723   5.286  0.00  0.00    +0.000 C 
ATOM    187  C   UNK A   1       9.233  16.127   6.216  0.00  0.00    +0.000 C 
ATOM    188  C   UNK A   1      11.100  16.956   4.768  0.00  0.00    +0.000 C 
ENDBRANCH 185 186
BRANCH 185 189
ATOM    189  N   UNK A   1      12.319  14.184   5.073  0.00  0.00    +0.000 NA
ATOM    190  H   UNK A   1      11.998  13.804   4.160  0.00  0.00    +0.000 HD
ENDBRANCH 185 189
ENDBRANCH 183 185
ENDBRANCH  15 181
BRANCH   7 191
ATOM    191  C   UNK A   4       2.629  13.318  12.608  0.00  0.00    +0.000 C 
ATOM    192  O   UNK A   4       2.990  14.248  13.320  0.00  0.00    +0.000 OA
ATOM    193  N   SER A   5       1.500  12.639  12.722  0.00  0.00    +0.000 N 
ATOM    194  H   SER A   5       1.173  12.137  11.872  0.00  0.00    +0.000 HD
BRANCH 193 195
ATOM    195  CA  SER A   5       0.666  12.518  13.908  0.00  0.00    +0.000 C 
BRANCH 195 196
ATOM    196  C   SER A   5       1.261  11.339  14.676  0.00  0.00    +0.000 C 
ATOM    197  N   SER A   6       1.888  11.647  15.801  0.00  0.00    +0.000 N 
ATOM    198  H   SER A   6       1.800  12.596  16.218  0.00  0.00    +0.000 HD
ATOM    199  O   SER A   5       1.223  10.192  14.252  0.00  0.00    +0.000 OA
BRANCH 197 200
ATOM    200  CA  SER A   6       2.708  10.619  16.443  0.00  0.00    +0.000 C 
BRANCH 200 201
ATOM    201  C   SER A   6       2.432  10.521  17.937  0.00  0.00    +0.000 C 
ATOM    202  O   SER A   6       3.162  11.127  18.722  0.00  0.00    +0.000 OA
ATOM    203  N   UNK A   7       1.402   9.776  18.318  0.00  0.00    +0.000 N 
ATOM    204  C   UNK A   7       1.093   9.587  19.738  0.00  0.00    +0.000 C 
ATOM    205  C   UNK A   7      -0.130   8.670  19.742  0.00  0.00    +0.000 C 
ATOM    206  C   UNK A   7      -0.114   8.020  18.395  0.00  0.00    +0.000 C 
ATOM    207  C   UNK A   7       0.471   9.032  17.449  0.00  0.00    +0.000 C 
BRANCH 204 208
ATOM    208  C   UNK A   7       2.265   8.888  20.428  0.00  0.00    +0.000 C 
ATOM    209  N   PRO A   8       2.569   9.313  21.645  0.00  0.00    +0.000 N 
ATOM    210  H   PRO A   8       1.981  10.041  22.099  0.00  0.00    +0.000 HD
ATOM    211  O   UNK A   7       2.855   7.988  19.830  0.00  0.00    +0.000 OA
BRANCH 209 212
ATOM    212  CA  PRO A   8       3.722   8.769  22.355  0.00  0.00    +0.000 C 
BRANCH 212 213
ATOM    213  CB  PRO A   8       4.585   9.915  22.907  0.00  0.00    +0.000 C 
ATOM    214  CG2 PRO A   8       5.878   9.367  23.507  0.00  0.00    +0.000 C 
ATOM    215  CG1 PRO A   8       4.888  10.911  21.794  0.00  0.00    +0.000 C 
ENDBRANCH 212 213
BRANCH 212 216
ATOM    216  C   PRO A   8       3.306   7.841  23.484  0.00  0.00    +0.000 C 
ATOM    217  O   PRO A   8       2.335   8.119  24.186  0.00  0.00    +0.000 OA
ENDBRANCH 212 216
ENDBRANCH 209 212
ENDBRANCH 204 208
ENDBRANCH 200 201
BRANCH 200 218
ATOM    218  CB  SER A   6       4.174  10.957  16.152  0.00  0.00    +0.000 C 
ATOM    219  SG  SER A   6       5.386   9.868  16.932  0.00  0.00    +0.000 S 
ENDBRANCH 200 218
ENDBRANCH 197 200
ENDBRANCH 195 196
BRANCH 195 220
ATOM    220  CB  SER A   5      -0.813  12.306  13.582  0.00  0.00    +0.000 C 
ATOM    221  CG2 SER A   5      -1.667  12.043  14.816  0.00  0.00    +0.000 C 
ATOM    222  CG1 SER A   5      -1.343  13.537  12.841  0.00  0.00    +0.000 C 
ENDBRANCH 195 220
ENDBRANCH 193 195
ENDBRANCH   7 191
BRANCH  11 223
ATOM    223  CB  ALA A   3       5.364  15.134   7.599  0.00  0.00    +0.000 C 
BRANCH 223 224
ATOM    224  CG  ALA A   3       4.319  16.228   7.671  0.00  0.00    +0.000 C 
ATOM    225  OD1 ALA A   3       3.905  16.587   8.767  0.00  0.00    +0.000 OA
ATOM    226  ND2 ALA A   3       3.921  16.723   6.507  0.00  0.00    +0.000 N 
ATOM    227 HD21 ALA A   3       3.204  17.475   6.480  0.00  0.00    +0.000 HD
ATOM    228 HD22 ALA A   3       4.326  16.359   5.621  0.00  0.00    +0.000 HD
ENDBRANCH 223 224
ENDBRANCH  11 223
TORSDOF 79
REMARK  Name = ../refined-set-2016/1q54/1q54_pocket.pdb
REMARK  193 active torsions:
REMARK  status: ('A' for Active; 'I' for Inactive)
REMARK    1  A    between atoms: _1  and  _5
REMARK    2  A    between atoms: _5  and  _6
REMARK    3  A    between atoms: _5  and  _8
REMARK    4  A    between atoms: _8  and  _9
REMARK    5  A    between atoms: _9  and  _10
REMARK    6  A    between atoms: _13  and  _15
REMARK    7  A    between atoms: _15  and  _16
REMARK    8  A    between atoms: _15  and  _18
REMARK    9  A    between atoms: _18  and  _19
REMARK   10  A    between atoms: _24  and  _26
REMARK   11  A    between atoms: _26  and  _27
REMARK   12  A    between atoms: _26  and  _29
REMARK   13  A    between atoms: _32  and  _34
REMARK   14  A    between atoms: _34  and  _35
REMARK   15  A    between atoms: _34  and  _37
REMARK   16  A    between atoms: _37  and  _38
REMARK   17  A    between atoms: _38  and  _39
REMARK   18  A    between atoms: _39  and  _40
REMARK   19  A    between atoms: _40  and  _41
REMARK   20  A    between atoms: _45  and  _47
REMARK   21  A    between atoms: _47  and  _48
REMARK   22  A    between atoms: _47  and  _50
REMARK   23  A    between atoms: _50  and  _51
REMARK   24  A    between atoms: _55  and  MN_513
REMARK   25  A    between atoms: _56  and  _58
REMARK   26  A    between atoms: _58  and  _59
REMARK   27  A    between atoms: _58  and  _61
REMARK   28  A    between atoms: _61  and  _62
REMARK   29  A    between atoms: _66  and  MN_513
REMARK   30  A    between atoms: _67  and  _69
REMARK   31  A    between atoms: _69  and  _70
REMARK   32  A    between atoms: _69  and  _72
REMARK   33  A    between atoms: _72  and  _73
REMARK   34  A    between atoms: _76  and  _78
REMARK   35  A    between atoms: _78  and  _79
REMARK   36  A    between atoms: _82  and  _84
REMARK   37  A    between atoms: _84  and  _85
REMARK   38  A    between atoms: _84  and  _87
REMARK   39  A    between atoms: _87  and  _88
REMARK   40  A    between atoms: _94  and  _96
REMARK   41  A    between atoms: _96  and  _97
REMARK   42  A    between atoms: _96  and  _99
REMARK   43  A    between atoms: _99  and  _100
REMARK   44  A    between atoms: _102  and  _104
REMARK   45  A    between atoms: _104  and  _105
REMARK   46  A    between atoms: _104  and  _107
REMARK   47  A    between atoms: _107  and  _108
REMARK   48  A    between atoms: _110  and  _112
REMARK   49  A    between atoms: _112  and  _113
REMARK   50  A    between atoms: _112  and  _115
REMARK   51  A    between atoms: _115  and  _116
REMARK   52  A    between atoms: _126  and  _128
REMARK   53  A    between atoms: _128  and  _129
REMARK   54  A    between atoms: _128  and  _131
REMARK   55  A    between atoms: _131  and  _132
REMARK   56  A    between atoms: _135  and  _137
REMARK   57  A    between atoms: _137  and  _138
REMARK   58  A    between atoms: _137  and  _140
REMARK   59  A    between atoms: _140  and  _141
REMARK   60  A    between atoms: _141  and  _142
REMARK   61  A    between atoms: _142  and  _143
REMARK   62  A    between atoms: _152  and  _154
REMARK   63  A    between atoms: _154  and  _155
REMARK   64  A    between atoms: _158  and  _160
REMARK   65  A    between atoms: _160  and  _161
REMARK   66  A    between atoms: _160  and  _163
REMARK   67  A    between atoms: _163  and  _164
REMARK   68  A    between atoms: _164  and  _165
REMARK   69  A    between atoms: _165  and  _166
REMARK   70  A    between atoms: _166  and  _167
REMARK   71  A    between atoms: _171  and  _173
REMARK   72  A    between atoms: _173  and  _174
REMARK   73  A    between atoms: _173  and  _176
REMARK   74  A    between atoms: _176  and  _177
REMARK   75  A    between atoms: _177  and  _178
REMARK   76  A    between atoms: _178  and  _179
REMARK   77  A    between atoms: _179  and  _180
REMARK   78  A    between atoms: _184  and  _186
REMARK   79  A    between atoms: _186  and  _187
REMARK   80  A    between atoms: _190  and  _192
REMARK   81  A    between atoms: _192  and  _193
REMARK   82  A    between atoms: _192  and  _195
REMARK   83  A    between atoms: _195  and  _196
REMARK   84  A    between atoms: _206  and  _208
REMARK   85  A    between atoms: _208  and  _209
REMARK   86  A    between atoms: _208  and  _211
REMARK   87  A    between atoms: _211  and  _212
REMARK   88  A    between atoms: _215  and  _217
REMARK   89  A    between atoms: _217  and  _218
REMARK   90  A    between atoms: _217  and  _220
REMARK   91  A    between atoms: _220  and  _221
REMARK   92  A    between atoms: _226  and  _228
REMARK   93  A    between atoms: _228  and  _229
REMARK   94  A    between atoms: _228  and  _231
REMARK   95  A    between atoms: _231  and  _232
REMARK   96  A    between atoms: _234  and  _236
REMARK   97  A    between atoms: _236  and  _237
REMARK   98  A    between atoms: _236  and  _239
REMARK   99  A    between atoms: _242  and  _244
REMARK  100  A    between atoms: _244  and  _245
REMARK  101  A    between atoms: _248  and  _250
REMARK  102  A    between atoms: _250  and  _251
REMARK  103  A    between atoms: _253  and  _255
REMARK  104  A    between atoms: _255  and  _256
REMARK  105  A    between atoms: _255  and  _258
REMARK  106  A    between atoms: _258  and  _259
REMARK  107  A    between atoms: _263  and  MN_513
REMARK  108  A    between atoms: _265  and  _266
REMARK  109  A    between atoms: _271  and  _273
REMARK  110  A    between atoms: _273  and  _274
REMARK  111  A    between atoms: _273  and  _276
REMARK  112  A    between atoms: _276  and  _277
REMARK  113  A    between atoms: _277  and  _278
REMARK  114  A    between atoms: _283  and  _285
REMARK  115  A    between atoms: _285  and  _286
REMARK  116  A    between atoms: _285  and  _288
REMARK  117  A    between atoms: _288  and  _289
REMARK  118  A    between atoms: _289  and  _290
REMARK  119  A    between atoms: _290  and  _291
REMARK  120  A    between atoms: _300  and  _302
REMARK  121  A    between atoms: _302  and  _303
REMARK  122  A    between atoms: _302  and  _305
REMARK  123  A    between atoms: _305  and  _306
REMARK  124  A    between atoms: _306  and  _307
REMARK  125  A    between atoms: _307  and  _308
REMARK  126  A    between atoms: _317  and  _319
REMARK  127  A    between atoms: _319  and  _320
REMARK  128  A    between atoms: _319  and  _322
REMARK  129  A    between atoms: _322  and  _323
REMARK  130  A    between atoms: _328  and  _329
REMARK  131  A    between atoms: _331  and  _333
REMARK  132  A    between atoms: _333  and  _334
REMARK  133  A    between atoms: _333  and  _336
REMARK  134  A    between atoms: _336  and  _337
REMARK  135  A    between atoms: _337  and  _338
REMARK  136  A    between atoms: _338  and  _340
REMARK  137  A    between atoms: _340  and  MG_514
REMARK  138  A    between atoms: _341  and  _343
REMARK  139  A    between atoms: _343  and  _344
REMARK  140  A    between atoms: _343  and  _346
REMARK  141  A    between atoms: _346  and  _347
REMARK  142  A    between atoms: _353  and  _355
REMARK  143  A    between atoms: _355  and  _356
REMARK  144  A    between atoms: _355  and  _358
REMARK  145  A    between atoms: _358  and  _359
REMARK  146  A    between atoms: _364  and  _365
REMARK  147  A    between atoms: _367  and  _369
REMARK  148  A    between atoms: _369  and  _370
REMARK  149  A    between atoms: _373  and  _375
REMARK  150  A    between atoms: _375  and  _376
REMARK  151  A    between atoms: _375  and  _378
REMARK  152  A    between atoms: _381  and  _383
REMARK  153  A    between atoms: _393  and  _396
REMARK  154  A    between atoms: _396  and  _397
REMARK  155  A    between atoms: _404  and  _405
REMARK  156  A    between atoms: _412  and  _414
REMARK  157  A    between atoms: _414  and  _415
REMARK  158  A    between atoms: _414  and  _417
REMARK  159  A    between atoms: _420  and  _422
REMARK  160  A    between atoms: _422  and  _423
REMARK  161  A    between atoms: _422  and  _425
REMARK  162  A    between atoms: _428  and  _429
REMARK  163  A    between atoms: _434  and  _436
REMARK  164  A    between atoms: _436  and  _437
REMARK  165  A    between atoms: _436  and  _439
REMARK  166  A    between atoms: _442  and  _444
REMARK  167  A    between atoms: _444  and  _445
REMARK  168  A    between atoms: _444  and  _447
REMARK  169  A    between atoms: _447  and  _448
REMARK  170  A    between atoms: _451  and  _453
REMARK  171  A    between atoms: _453  and  _454
REMARK  172  A    between atoms: _453  and  _456
REMARK  173  A    between atoms: _456  and  _457
REMARK  174  A    between atoms: _457  and  _458
REMARK  175  A    between atoms: _461  and  _463
REMARK  176  A    between atoms: _463  and  _464
REMARK  177  A    between atoms: _463  and  _466
REMARK  178  A    between atoms: _466  and  _467
REMARK  179  A    between atoms: _470  and  _471
REMARK  180  A    between atoms: _476  and  _478
REMARK  181  A    between atoms: _478  and  _479
REMARK  182  A    between atoms: _478  and  _481
REMARK  183  A    between atoms: _481  and  _482
REMARK  184  A    between atoms: _492  and  _494
REMARK  185  A    between atoms: _494  and  _495
REMARK  186  A    between atoms: _494  and  _497
REMARK  187  A    between atoms: _497  and  _498
REMARK  188  A    between atoms: _498  and  _499
REMARK  189  A    between atoms: _501  and  _503
REMARK  190  A    between atoms: _503  and  _504
REMARK  191  A    between atoms: _503  and  _506
REMARK  192  A    between atoms: _506  and  _507
REMARK  193  A    between atoms: _507  and  _508
REMARK                            x       y       z     vdW  Elec       q    Type
REMARK                         _______ _______ _______ _____ _____    ______ ____
ROOT
ATOM      1  CA  THR A   1      18.790   3.820  20.876  0.00  0.00    +0.160 C 
ENDROOT
BRANCH   1   2
ATOM      2  N   THR A   1      18.236   4.577  21.989  0.00  0.00    -0.237 NA
ATOM      3  H   THR A   1      17.514   5.310  21.834  0.00  0.00    +0.142 HD
ENDBRANCH   1   2
BRANCH   1   4
ATOM      4  CB  THR A   1      17.736   2.938  20.193  0.00  0.00    +0.134 C 
ATOM      5  CG2 THR A   1      17.048   2.023  21.191  0.00  0.00    +0.034 C 
BRANCH   4   6
ATOM      6  OG1 THR A   1      16.736   3.800  19.640  0.00  0.00    -0.383 OA
ATOM      7  HG1 THR A   1      16.042   3.254  19.192  0.00  0.00    +0.210 HD
ENDBRANCH   4   6
ENDBRANCH   1   4
BRANCH   1   8
ATOM      8  C   THR A   1      19.396   4.777  19.845  0.00  0.00    +0.227 C 
ATOM      9  O   THR A   1      19.089   5.969  19.811  0.00  0.00    -0.287 OA
ENDBRANCH   1   8
TORSDOF 4
REMARK  Name = ../refined-set-2016/1q54/1q54_pocket.pdb
REMARK  193 active torsions:
REMARK  status: ('A' for Active; 'I' for Inactive)
REMARK    1  A    between atoms: _1  and  _5
REMARK    2  A    between atoms: _5  and  _6
REMARK    3  A    between atoms: _5  and  _8
REMARK    4  A    between atoms: _8  and  _9
REMARK    5  A    between atoms: _9  and  _10
REMARK    6  A    between atoms: _13  and  _15
REMARK    7  A    between atoms: _15  and  _16
REMARK    8  A    between atoms: _15  and  _18
REMARK    9  A    between atoms: _18  and  _19
REMARK   10  A    between atoms: _24  and  _26
REMARK   11  A    between atoms: _26  and  _27
REMARK   12  A    between atoms: _26  and  _29
REMARK   13  A    between atoms: _32  and  _34
REMARK   14  A    between atoms: _34  and  _35
REMARK   15  A    between atoms: _34  and  _37
REMARK   16  A    between atoms: _37  and  _38
REMARK   17  A    between atoms: _38  and  _39
REMARK   18  A    between atoms: _39  and  _40
REMARK   19  A    between atoms: _40  and  _41
REMARK   20  A    between atoms: _45  and  _47
REMARK   21  A    between atoms: _47  and  _48
REMARK   22  A    between atoms: _47  and  _50
REMARK   23  A    between atoms: _50  and  _51
REMARK   24  A    between atoms: _55  and  MN_513
REMARK   25  A    between atoms: _56  and  _58
REMARK   26  A    between atoms: _58  and  _59
REMARK   27  A    between atoms: _58  and  _61
REMARK   28  A    between atoms: _61  and  _62
REMARK   29  A    between atoms: _66  and  MN_513
REMARK   30  A    between atoms: _67  and  _69
REMARK   31  A    between atoms: _69  and  _70
REMARK   32  A    between atoms: _69  and  _72
REMARK   33  A    between atoms: _72  and  _73
REMARK   34  A    between atoms: _76  and  _78
REMARK   35  A    between atoms: _78  and  _79
REMARK   36  A    between atoms: _82  and  _84
REMARK   37  A    between atoms: _84  and  _85
REMARK   38  A    between atoms: _84  and  _87
REMARK   39  A    between atoms: _87  and  _88
REMARK   40  A    between atoms: _94  and  _96
REMARK   41  A    between atoms: _96  and  _97
REMARK   42  A    between atoms: _96  and  _99
REMARK   43  A    between atoms: _99  and  _100
REMARK   44  A    between atoms: _102  and  _104
REMARK   45  A    between atoms: _104  and  _105
REMARK   46  A    between atoms: _104  and  _107
REMARK   47  A    between atoms: _107  and  _108
REMARK   48  A    between atoms: _110  and  _112
REMARK   49  A    between atoms: _112  and  _113
REMARK   50  A    between atoms: _112  and  _115
REMARK   51  A    between atoms: _115  and  _116
REMARK   52  A    between atoms: _126  and  _128
REMARK   53  A    between atoms: _128  and  _129
REMARK   54  A    between atoms: _128  and  _131
REMARK   55  A    between atoms: _131  and  _132
REMARK   56  A    between atoms: _135  and  _137
REMARK   57  A    between atoms: _137  and  _138
REMARK   58  A    between atoms: _137  and  _140
REMARK   59  A    between atoms: _140  and  _141
REMARK   60  A    between atoms: _141  and  _142
REMARK   61  A    between atoms: _142  and  _143
REMARK   62  A    between atoms: _152  and  _154
REMARK   63  A    between atoms: _154  and  _155
REMARK   64  A    between atoms: _158  and  _160
REMARK   65  A    between atoms: _160  and  _161
REMARK   66  A    between atoms: _160  and  _163
REMARK   67  A    between atoms: _163  and  _164
REMARK   68  A    between atoms: _164  and  _165
REMARK   69  A    between atoms: _165  and  _166
REMARK   70  A    between atoms: _166  and  _167
REMARK   71  A    between atoms: _171  and  _173
REMARK   72  A    between atoms: _173  and  _174
REMARK   73  A    between atoms: _173  and  _176
REMARK   74  A    between atoms: _176  and  _177
REMARK   75  A    between atoms: _177  and  _178
REMARK   76  A    between atoms: _178  and  _179
REMARK   77  A    between atoms: _179  and  _180
REMARK   78  A    between atoms: _184  and  _186
REMARK   79  A    between atoms: _186  and  _187
REMARK   80  A    between atoms: _190  and  _192
REMARK   81  A    between atoms: _192  and  _193
REMARK   82  A    between atoms: _192  and  _195
REMARK   83  A    between atoms: _195  and  _196
REMARK   84  A    between atoms: _206  and  _208
REMARK   85  A    between atoms: _208  and  _209
REMARK   86  A    between atoms: _208  and  _211
REMARK   87  A    between atoms: _211  and  _212
REMARK   88  A    between atoms: _215  and  _217
REMARK   89  A    between atoms: _217  and  _218
REMARK   90  A    between atoms: _217  and  _220
REMARK   91  A    between atoms: _220  and  _221
REMARK   92  A    between atoms: _226  and  _228
REMARK   93  A    between atoms: _228  and  _229
REMARK   94  A    between atoms: _228  and  _231
REMARK   95  A    between atoms: _231  and  _232
REMARK   96  A    between atoms: _234  and  _236
REMARK   97  A    between atoms: _236  and  _237
REMARK   98  A    between atoms: _236  and  _239
REMARK   99  A    between atoms: _242  and  _244
REMARK  100  A    between atoms: _244  and  _245
REMARK  101  A    between atoms: _248  and  _250
REMARK  102  A    between atoms: _250  and  _251
REMARK  103  A    between atoms: _253  and  _255
REMARK  104  A    between atoms: _255  and  _256
REMARK  105  A    between atoms: _255  and  _258
REMARK  106  A    between atoms: _258  and  _259
REMARK  107  A    between atoms: _263  and  MN_513
REMARK  108  A    between atoms: _265  and  _266
REMARK  109  A    between atoms: _271  and  _273
REMARK  110  A    between atoms: _273  and  _274
REMARK  111  A    between atoms: _273  and  _276
REMARK  112  A    between atoms: _276  and  _277
REMARK  113  A    between atoms: _277  and  _278
REMARK  114  A    between atoms: _283  and  _285
REMARK  115  A    between atoms: _285  and  _286
REMARK  116  A    between atoms: _285  and  _288
REMARK  117  A    between atoms: _288  and  _289
REMARK  118  A    between atoms: _289  and  _290
REMARK  119  A    between atoms: _290  and  _291
REMARK  120  A    between atoms: _300  and  _302
REMARK  121  A    between atoms: _302  and  _303
REMARK  122  A    between atoms: _302  and  _305
REMARK  123  A    between atoms: _305  and  _306
REMARK  124  A    between atoms: _306  and  _307
REMARK  125  A    between atoms: _307  and  _308
REMARK  126  A    between atoms: _317  and  _319
REMARK  127  A    between atoms: _319  and  _320
REMARK  128  A    between atoms: _319  and  _322
REMARK  129  A    between atoms: _322  and  _323
REMARK  130  A    between atoms: _328  and  _329
REMARK  131  A    between atoms: _331  and  _333
REMARK  132  A    between atoms: _333  and  _334
REMARK  133  A    between atoms: _333  and  _336
REMARK  134  A    between atoms: _336  and  _337
REMARK  135  A    between atoms: _337  and  _338
REMARK  136  A    between atoms: _338  and  _340
REMARK  137  A    between atoms: _340  and  MG_514
REMARK  138  A    between atoms: _341  and  _343
REMARK  139  A    between atoms: _343  and  _344
REMARK  140  A    between atoms: _343  and  _346
REMARK  141  A    between atoms: _346  and  _347
REMARK  142  A    between atoms: _353  and  _355
REMARK  143  A    between atoms: _355  and  _356
REMARK  144  A    between atoms: _355  and  _358
REMARK  145  A    between atoms: _358  and  _359
REMARK  146  A    between atoms: _364  and  _365
REMARK  147  A    between atoms: _367  and  _369
REMARK  148  A    between atoms: _369  and  _370
REMARK  149  A    between atoms: _373  and  _375
REMARK  150  A    between atoms: _375  and  _376
REMARK  151  A    between atoms: _375  and  _378
REMARK  152  A    between atoms: _381  and  _383
REMARK  153  A    between atoms: _393  and  _396
REMARK  154  A    between atoms: _396  and  _397
REMARK  155  A    between atoms: _404  and  _405
REMARK  156  A    between atoms: _412  and  _414
REMARK  157  A    between atoms: _414  and  _415
REMARK  158  A    between atoms: _414  and  _417
REMARK  159  A    between atoms: _420  and  _422
REMARK  160  A    between atoms: _422  and  _423
REMARK  161  A    between atoms: _422  and  _425
REMARK  162  A    between atoms: _428  and  _429
REMARK  163  A    between atoms: _434  and  _436
REMARK  164  A    between atoms: _436  and  _437
REMARK  165  A    between atoms: _436  and  _439
REMARK  166  A    between atoms: _442  and  _444
REMARK  167  A    between atoms: _444  and  _445
REMARK  168  A    between atoms: _444  and  _447
REMARK  169  A    between atoms: _447  and  _448
REMARK  170  A    between atoms: _451  and  _453
REMARK  171  A    between atoms: _453  and  _454
REMARK  172  A    between atoms: _453  and  _456
REMARK  173  A    between atoms: _456  and  _457
REMARK  174  A    between atoms: _457  and  _458
REMARK  175  A    between atoms: _461  and  _463
REMARK  176  A    between atoms: _463  and  _464
REMARK  177  A    between atoms: _463  and  _466
REMARK  178  A    between atoms: _466  and  _467
REMARK  179  A    between atoms: _470  and  _471
REMARK  180  A    between atoms: _476  and  _478
REMARK  181  A    between atoms: _478  and  _479
REMARK  182  A    between atoms: _478  and  _481
REMARK  183  A    between atoms: _481  and  _482
REMARK  184  A    between atoms: _492  and  _494
REMARK  185  A    between atoms: _494  and  _495
REMARK  186  A    between atoms: _494  and  _497
REMARK  187  A    between atoms: _497  and  _498
REMARK  188  A    between atoms: _498  and  _499
REMARK  189  A    between atoms: _501  and  _503
REMARK  190  A    between atoms: _503  and  _504
REMARK  191  A    between atoms: _503  and  _506
REMARK  192  A    between atoms: _506  and  _507
REMARK  193  A    between atoms: _507  and  _508
REMARK                            x       y       z     vdW  Elec       q    Type
REMARK                         _______ _______ _______ _____ _____    ______ ____
ROOT
ATOM      1  CB  ARG A   1      18.344   5.485  13.861  0.00  0.00    +0.030 C 
ENDROOT
BRANCH   1   2
ATOM      2  CA  ARG A   1      19.243   4.472  14.570  0.00  0.00    +0.145 C 
BRANCH   2   3
ATOM      3  C   ARG A   1      20.335   3.955  13.644  0.00  0.00    +0.238 C 
ATOM      4  O   ARG A   1      21.417   4.540  13.507  0.00  0.00    -0.274 OA
ATOM      5  N   ALA A   2      20.040   2.836  12.983  0.00  0.00    -0.298 N 
ATOM      6  H   ALA A   2      19.106   2.392  13.094  0.00  0.00    +0.150 HD
BRANCH   5   7
ATOM      7  CA  ALA A   2      21.045   2.237  12.098  0.00  0.00    +0.137 C 
ATOM      8  CB  ALA A   2      20.568   0.899  11.553  0.00  0.00    +0.030 C 
BRANCH   7   9
ATOM      9  C   ALA A   2      21.408   3.199  10.977  0.00  0.00    +0.227 C 
ATOM     10  O   ALA A   2      20.634   4.096  10.623  0.00  0.00    -0.286 OA
ENDBRANCH   7   9
ENDBRANCH   5   7
ENDBRANCH   2   3
BRANCH   2  11
ATOM     11  N   ARG A   1      19.797   5.088  15.776  0.00  0.00    -0.238 NA
ATOM     12  H   ARG A   1      19.696   6.108  15.954  0.00  0.00    +0.142 HD
ENDBRANCH   2  11
ENDBRANCH   1   2
BRANCH   1  13
ATOM     13  CG  ARG A   1      17.190   5.983  14.712  0.00  0.00    +0.045 C 
BRANCH  13  14
ATOM     14  CD  ARG A   1      16.558   7.209  14.075  0.00  0.00    +0.174 C 
BRANCH  14  15
ATOM     15  NE  ARG A   1      15.957   6.978  12.775  0.00  0.00    -0.265 N 
ATOM     16  CZ  ARG A   1      14.800   6.376  12.532  0.00  0.00    +0.342 C 
ATOM     17  NH2 ARG A   1      14.068   5.899  13.536  0.00  0.00    -0.292 N 
ATOM     18 HH21 ARG A   1      14.402   5.997  14.516  0.00  0.00    +0.255 HD
ATOM     19 HH22 ARG A   1      13.162   5.428  13.341  0.00  0.00    +0.255 HD
ATOM     20  NH1 ARG A   1      14.370   6.241  11.276  0.00  0.00    -0.292 N 
ATOM     21 HH11 ARG A   1      13.463   5.769  11.085  0.00  0.00    +0.255 HD
ATOM     22 HH12 ARG A   1      14.942   6.608  10.488  0.00  0.00    +0.255 HD
ATOM     23  HE  ARG A   1      16.488   7.319  11.948  0.00  0.00    +0.259 HD
ENDBRANCH  14  15
ENDBRANCH  13  14
ENDBRANCH   1  13
TORSDOF 8
REMARK  Name = ../refined-set-2016/1q54/1q54_pocket.pdb
REMARK  193 active torsions:
REMARK  status: ('A' for Active; 'I' for Inactive)
REMARK    1  A    between atoms: _1  and  _5
REMARK    2  A    between atoms: _5  and  _6
REMARK    3  A    between atoms: _5  and  _8
REMARK    4  A    between atoms: _8  and  _9
REMARK    5  A    between atoms: _9  and  _10
REMARK    6  A    between atoms: _13  and  _15
REMARK    7  A    between atoms: _15  and  _16
REMARK    8  A    between atoms: _15  and  _18
REMARK    9  A    between atoms: _18  and  _19
REMARK   10  A    between atoms: _24  and  _26
REMARK   11  A    between atoms: _26  and  _27
REMARK   12  A    between atoms: _26  and  _29
REMARK   13  A    between atoms: _32  and  _34
REMARK   14  A    between atoms: _34  and  _35
REMARK   15  A    between atoms: _34  and  _37
REMARK   16  A    between atoms: _37  and  _38
REMARK   17  A    between atoms: _38  and  _39
REMARK   18  A    between atoms: _39  and  _40
REMARK   19  A    between atoms: _40  and  _41
REMARK   20  A    between atoms: _45  and  _47
REMARK   21  A    between atoms: _47  and  _48
REMARK   22  A    between atoms: _47  and  _50
REMARK   23  A    between atoms: _50  and  _51
REMARK   24  A    between atoms: _55  and  MN_513
REMARK   25  A    between atoms: _56  and  _58
REMARK   26  A    between atoms: _58  and  _59
REMARK   27  A    between atoms: _58  and  _61
REMARK   28  A    between atoms: _61  and  _62
REMARK   29  A    between atoms: _66  and  MN_513
REMARK   30  A    between atoms: _67  and  _69
REMARK   31  A    between atoms: _69  and  _70
REMARK   32  A    between atoms: _69  and  _72
REMARK   33  A    between atoms: _72  and  _73
REMARK   34  A    between atoms: _76  and  _78
REMARK   35  A    between atoms: _78  and  _79
REMARK   36  A    between atoms: _82  and  _84
REMARK   37  A    between atoms: _84  and  _85
REMARK   38  A    between atoms: _84  and  _87
REMARK   39  A    between atoms: _87  and  _88
REMARK   40  A    between atoms: _94  and  _96
REMARK   41  A    between atoms: _96  and  _97
REMARK   42  A    between atoms: _96  and  _99
REMARK   43  A    between atoms: _99  and  _100
REMARK   44  A    between atoms: _102  and  _104
REMARK   45  A    between atoms: _104  and  _105
REMARK   46  A    between atoms: _104  and  _107
REMARK   47  A    between atoms: _107  and  _108
REMARK   48  A    between atoms: _110  and  _112
REMARK   49  A    between atoms: _112  and  _113
REMARK   50  A    between atoms: _112  and  _115
REMARK   51  A    between atoms: _115  and  _116
REMARK   52  A    between atoms: _126  and  _128
REMARK   53  A    between atoms: _128  and  _129
REMARK   54  A    between atoms: _128  and  _131
REMARK   55  A    between atoms: _131  and  _132
REMARK   56  A    between atoms: _135  and  _137
REMARK   57  A    between atoms: _137  and  _138
REMARK   58  A    between atoms: _137  and  _140
REMARK   59  A    between atoms: _140  and  _141
REMARK   60  A    between atoms: _141  and  _142
REMARK   61  A    between atoms: _142  and  _143
REMARK   62  A    between atoms: _152  and  _154
REMARK   63  A    between atoms: _154  and  _155
REMARK   64  A    between atoms: _158  and  _160
REMARK   65  A    between atoms: _160  and  _161
REMARK   66  A    between atoms: _160  and  _163
REMARK   67  A    between atoms: _163  and  _164
REMARK   68  A    between atoms: _164  and  _165
REMARK   69  A    between atoms: _165  and  _166
REMARK   70  A    between atoms: _166  and  _167
REMARK   71  A    between atoms: _171  and  _173
REMARK   72  A    between atoms: _173  and  _174
REMARK   73  A    between atoms: _173  and  _176
REMARK   74  A    between atoms: _176  and  _177
REMARK   75  A    between atoms: _177  and  _178
REMARK   76  A    between atoms: _178  and  _179
REMARK   77  A    between atoms: _179  and  _180
REMARK   78  A    between atoms: _184  and  _186
REMARK   79  A    between atoms: _186  and  _187
REMARK   80  A    between atoms: _190  and  _192
REMARK   81  A    between atoms: _192  and  _193
REMARK   82  A    between atoms: _192  and  _195
REMARK   83  A    between atoms: _195  and  _196
REMARK   84  A    between atoms: _206  and  _208
REMARK   85  A    between atoms: _208  and  _209
REMARK   86  A    between atoms: _208  and  _211
REMARK   87  A    between atoms: _211  and  _212
REMARK   88  A    between atoms: _215  and  _217
REMARK   89  A    between atoms: _217  and  _218
REMARK   90  A    between atoms: _217  and  _220
REMARK   91  A    between atoms: _220  and  _221
REMARK   92  A    between atoms: _226  and  _228
REMARK   93  A    between atoms: _228  and  _229
REMARK   94  A    between atoms: _228  and  _231
REMARK   95  A    between atoms: _231  and  _232
REMARK   96  A    between atoms: _234  and  _236
REMARK   97  A    between atoms: _236  and  _237
REMARK   98  A    between atoms: _236  and  _239
REMARK   99  A    between atoms: _242  and  _244
REMARK  100  A    between atoms: _244  and  _245
REMARK  101  A    between atoms: _248  and  _250
REMARK  102  A    between atoms: _250  and  _251
REMARK  103  A    between atoms: _253  and  _255
REMARK  104  A    between atoms: _255  and  _256
REMARK  105  A    between atoms: _255  and  _258
REMARK  106  A    between atoms: _258  and  _259
REMARK  107  A    between atoms: _263  and  MN_513
REMARK  108  A    between atoms: _265  and  _266
REMARK  109  A    between atoms: _271  and  _273
REMARK  110  A    between atoms: _273  and  _274
REMARK  111  A    between atoms: _273  and  _276
REMARK  112  A    between atoms: _276  and  _277
REMARK  113  A    between atoms: _277  and  _278
REMARK  114  A    between atoms: _283  and  _285
REMARK  115  A    between atoms: _285  and  _286
REMARK  116  A    between atoms: _285  and  _288
REMARK  117  A    between atoms: _288  and  _289
REMARK  118  A    between atoms: _289  and  _290
REMARK  119  A    between atoms: _290  and  _291
REMARK  120  A    between atoms: _300  and  _302
REMARK  121  A    between atoms: _302  and  _303
REMARK  122  A    between atoms: _302  and  _305
REMARK  123  A    between atoms: _305  and  _306
REMARK  124  A    between atoms: _306  and  _307
REMARK  125  A    between atoms: _307  and  _308
REMARK  126  A    between atoms: _317  and  _319
REMARK  127  A    between atoms: _319  and  _320
REMARK  128  A    between atoms: _319  and  _322
REMARK  129  A    between atoms: _322  and  _323
REMARK  130  A    between atoms: _328  and  _329
REMARK  131  A    between atoms: _331  and  _333
REMARK  132  A    between atoms: _333  and  _334
REMARK  133  A    between atoms: _333  and  _336
REMARK  134  A    between atoms: _336  and  _337
REMARK  135  A    between atoms: _337  and  _338
REMARK  136  A    between atoms: _338  and  _340
REMARK  137  A    between atoms: _340  and  MG_514
REMARK  138  A    between atoms: _341  and  _343
REMARK  139  A    between atoms: _343  and  _344
REMARK  140  A    between atoms: _343  and  _346
REMARK  141  A    between atoms: _346  and  _347
REMARK  142  A    between atoms: _353  and  _355
REMARK  143  A    between atoms: _355  and  _356
REMARK  144  A    between atoms: _355  and  _358
REMARK  145  A    between atoms: _358  and  _359
REMARK  146  A    between atoms: _364  and  _365
REMARK  147  A    between atoms: _367  and  _369
REMARK  148  A    between atoms: _369  and  _370
REMARK  149  A    between atoms: _373  and  _375
REMARK  150  A    between atoms: _375  and  _376
REMARK  151  A    between atoms: _375  and  _378
REMARK  152  A    between atoms: _381  and  _383
REMARK  153  A    between atoms: _393  and  _396
REMARK  154  A    between atoms: _396  and  _397
REMARK  155  A    between atoms: _404  and  _405
REMARK  156  A    between atoms: _412  and  _414
REMARK  157  A    between atoms: _414  and  _415
REMARK  158  A    between atoms: _414  and  _417
REMARK  159  A    between atoms: _420  and  _422
REMARK  160  A    between atoms: _422  and  _423
REMARK  161  A    between atoms: _422  and  _425
REMARK  162  A    between atoms: _428  and  _429
REMARK  163  A    between atoms: _434  and  _436
REMARK  164  A    between atoms: _436  and  _437
REMARK  165  A    between atoms: _436  and  _439
REMARK  166  A    between atoms: _442  and  _444
REMARK  167  A    between atoms: _444  and  _445
REMARK  168  A    between atoms: _444  and  _447
REMARK  169  A    between atoms: _447  and  _448
REMARK  170  A    between atoms: _451  and  _453
REMARK  171  A    between atoms: _453  and  _454
REMARK  172  A    between atoms: _453  and  _456
REMARK  173  A    between atoms: _456  and  _457
REMARK  174  A    between atoms: _457  and  _458
REMARK  175  A    between atoms: _461  and  _463
REMARK  176  A    between atoms: _463  and  _464
REMARK  177  A    between atoms: _463  and  _466
REMARK  178  A    between atoms: _466  and  _467
REMARK  179  A    between atoms: _470  and  _471
REMARK  180  A    between atoms: _476  and  _478
REMARK  181  A    between atoms: _478  and  _479
REMARK  182  A    between atoms: _478  and  _481
REMARK  183  A    between atoms: _481  and  _482
REMARK  184  A    between atoms: _492  and  _494
REMARK  185  A    between atoms: _494  and  _495
REMARK  186  A    between atoms: _494  and  _497
REMARK  187  A    between atoms: _497  and  _498
REMARK  188  A    between atoms: _498  and  _499
REMARK  189  A    between atoms: _501  and  _503
REMARK  190  A    between atoms: _503  and  _504
REMARK  191  A    between atoms: _503  and  _506
REMARK  192  A    between atoms: _506  and  _507
REMARK  193  A    between atoms: _507  and  _508
REMARK                            x       y       z     vdW  Elec       q    Type
REMARK                         _______ _______ _______ _____ _____    ______ ____
ROOT
ATOM      1  CA  LYS A   2      15.959   6.362   5.413  0.00  0.00    +0.149 C 
ENDROOT
BRANCH   1   4
ATOM      2  C   LYS A   1      17.275   5.238   7.072  0.00  0.00    +0.238 C 
ATOM      3  O   LYS A   1      18.140   6.105   6.936  0.00  0.00    -0.274 OA
ATOM      4  N   LYS A   2      16.133   5.279   6.384  0.00  0.00    -0.297 N 
ATOM      5  H   LYS A   2      15.391   4.566   6.532  0.00  0.00    +0.150 HD
BRANCH   2   6
ATOM      6  CA  LYS A   1      17.482   4.082   8.039  0.00  0.00    +0.145 C 
BRANCH   6   7
ATOM      7  N   LYS A   1      18.852   3.564   7.947  0.00  0.00    -0.238 NA
ATOM      8  H   LYS A   1      19.517   3.682   8.738  0.00  0.00    +0.142 HD
ENDBRANCH   6   7
BRANCH   6   9
ATOM      9  CB  LYS A   1      17.163   4.528   9.464  0.00  0.00    +0.026 C 
BRANCH   9  10
ATOM     10  CG  LYS A   1      17.110   3.397  10.478  0.00  0.00    -0.000 C 
BRANCH  10  11
ATOM     11  CD  LYS A   1      16.139   2.307  10.047  0.00  0.00    -0.024 C 
BRANCH  11  12
ATOM     12  CE  LYS A   1      14.697   2.773  10.162  0.00  0.00    -0.086 C 
BRANCH  12  13
ATOM     13  NZ  LYS A   1      13.730   1.666   9.981  0.00  0.00    +0.380 N 
ATOM     14  HZ1 LYS A   1      13.893   0.942  10.710  0.00  0.00    -0.089 HD
ATOM     15  HZ2 LYS A   1      12.762   2.035  10.068  0.00  0.00    -0.089 HD
ATOM     16  HZ3 LYS A   1      13.858   1.246   9.038  0.00  0.00    -0.089 HD
ENDBRANCH  12  13
ENDBRANCH  11  12
ENDBRANCH  10  11
ENDBRANCH   9  10
ENDBRANCH   6   9
ENDBRANCH   2   6
ENDBRANCH   1   4
BRANCH   1  17
ATOM     17  C   LYS A   2      15.946   7.729   6.083  0.00  0.00    +0.241 C 
ATOM     18  N   ALA A   3      15.400   7.827   7.285  0.00  0.00    -0.297 N 
ATOM     19  H   ALA A   3      15.042   6.964   7.742  0.00  0.00    +0.150 HD
ATOM     20  O   LYS A   2      16.427   8.720   5.523  0.00  0.00    -0.273 OA
BRANCH  18  21
ATOM     21  CA  ALA A   3      15.280   9.095   7.993  0.00  0.00    +0.149 C 
ATOM     22  CB  ALA A   3      13.821   9.423   8.274  0.00  0.00    +0.031 C 
BRANCH  21  23
ATOM     23  C   ALA A   3      16.086   9.059   9.285  0.00  0.00    +0.241 C 
ATOM     24  O   ALA A   3      16.073   8.056   9.988  0.00  0.00    -0.273 OA
ATOM     25  N   TRP A   4      16.780  10.145   9.575  0.00  0.00    -0.298 N 
ATOM     26  H   TRP A   4      16.683  10.970   8.949  0.00  0.00    +0.150 HD
BRANCH  25  27
ATOM     27  CA  TRP A   4      17.677  10.256  10.726  0.00  0.00    +0.141 C 
BRANCH  27  28
ATOM     28  C   TRP A   4      18.534   9.023  10.955  0.00  0.00    +0.227 C 
ATOM     29  O   TRP A   4      18.607   8.478  12.063  0.00  0.00    -0.286 OA
ENDBRANCH  27  28
BRANCH  27  30
ATOM     30  CB  TRP A   4      16.862  10.609  11.986  0.00  0.00    +0.056 C 
BRANCH  30  31
ATOM     31  CG  TRP A   4      16.482  12.064  11.934  0.00  0.00    -0.002 A 
ATOM     32  CD1 TRP A   4      17.206  13.095  12.461  0.00  0.00    +0.068 A 
ATOM     33  NE1 TRP A   4      16.560  14.283  12.224  0.00  0.00    -0.352 N 
ATOM     34  HE1 TRP A   4      16.895  15.222  12.521  0.00  0.00    +0.166 HD
ATOM     35  CE2 TRP A   4      15.400  14.033  11.532  0.00  0.00    +0.056 A 
ATOM     36  CZ2 TRP A   4      14.422  14.915  11.070  0.00  0.00    +0.017 A 
ATOM     37  CH2 TRP A   4      13.353  14.385  10.398  0.00  0.00    +0.001 A 
ATOM     38  CZ3 TRP A   4      13.242  13.007  10.181  0.00  0.00    +0.000 A 
ATOM     39  CE3 TRP A   4      14.214  12.136  10.641  0.00  0.00    +0.001 A 
ATOM     40  CD2 TRP A   4      15.318  12.645  11.331  0.00  0.00    +0.013 A 
ENDBRANCH  30  31
ENDBRANCH  27  30
ENDBRANCH  25  27
ENDBRANCH  21  23
ENDBRANCH  18  21
ENDBRANCH   1  17
BRANCH   1  41
ATOM     41  CB  LYS A   2      14.688   6.142   4.589  0.00  0.00    +0.029 C 
BRANCH  41  42
ATOM     42  CG  LYS A   2      14.553   7.074   3.398  0.00  0.00    +0.000 C 
BRANCH  42  43
ATOM     43  CD  LYS A   2      13.894   6.414   2.199  0.00  0.00    -0.024 C 
BRANCH  43  44
ATOM     44  CE  LYS A   2      14.237   7.152   0.912  0.00  0.00    -0.086 C 
BRANCH  44  45
ATOM     45  NZ  LYS A   2      13.170   7.014  -0.126  0.00  0.00    +0.380 N 
ATOM     46  HZ1 LYS A   2      12.279   7.404   0.241  0.00  0.00    -0.089 HD
ATOM     47  HZ2 LYS A   2      13.040   6.008  -0.357  0.00  0.00    -0.089 HD
ATOM     48  HZ3 LYS A   2      13.451   7.534  -0.982  0.00  0.00    -0.089 HD
ENDBRANCH  44  45
ENDBRANCH  43  44
ENDBRANCH  42  43
ENDBRANCH  41  42
ENDBRANCH   1  41
TORSDOF 20
REMARK  Name = ../refined-set-2016/1q54/1q54_pocket.pdb
REMARK  193 active torsions:
REMARK  status: ('A' for Active; 'I' for Inactive)
REMARK    1  A    between atoms: _1  and  _5
REMARK    2  A    between atoms: _5  and  _6
REMARK    3  A    between atoms: _5  and  _8
REMARK    4  A    between atoms: _8  and  _9
REMARK    5  A    between atoms: _9  and  _10
REMARK    6  A    between atoms: _13  and  _15
REMARK    7  A    between atoms: _15  and  _16
REMARK    8  A    between atoms: _15  and  _18
REMARK    9  A    between atoms: _18  and  _19
REMARK   10  A    between atoms: _24  and  _26
REMARK   11  A    between atoms: _26  and  _27
REMARK   12  A    between atoms: _26  and  _29
REMARK   13  A    between atoms: _32  and  _34
REMARK   14  A    between atoms: _34  and  _35
REMARK   15  A    between atoms: _34  and  _37
REMARK   16  A    between atoms: _37  and  _38
REMARK   17  A    between atoms: _38  and  _39
REMARK   18  A    between atoms: _39  and  _40
REMARK   19  A    between atoms: _40  and  _41
REMARK   20  A    between atoms: _45  and  _47
REMARK   21  A    between atoms: _47  and  _48
REMARK   22  A    between atoms: _47  and  _50
REMARK   23  A    between atoms: _50  and  _51
REMARK   24  A    between atoms: _55  and  MN_513
REMARK   25  A    between atoms: _56  and  _58
REMARK   26  A    between atoms: _58  and  _59
REMARK   27  A    between atoms: _58  and  _61
REMARK   28  A    between atoms: _61  and  _62
REMARK   29  A    between atoms: _66  and  MN_513
REMARK   30  A    between atoms: _67  and  _69
REMARK   31  A    between atoms: _69  and  _70
REMARK   32  A    between atoms: _69  and  _72
REMARK   33  A    between atoms: _72  and  _73
REMARK   34  A    between atoms: _76  and  _78
REMARK   35  A    between atoms: _78  and  _79
REMARK   36  A    between atoms: _82  and  _84
REMARK   37  A    between atoms: _84  and  _85
REMARK   38  A    between atoms: _84  and  _87
REMARK   39  A    between atoms: _87  and  _88
REMARK   40  A    between atoms: _94  and  _96
REMARK   41  A    between atoms: _96  and  _97
REMARK   42  A    between atoms: _96  and  _99
REMARK   43  A    between atoms: _99  and  _100
REMARK   44  A    between atoms: _102  and  _104
REMARK   45  A    between atoms: _104  and  _105
REMARK   46  A    between atoms: _104  and  _107
REMARK   47  A    between atoms: _107  and  _108
REMARK   48  A    between atoms: _110  and  _112
REMARK   49  A    between atoms: _112  and  _113
REMARK   50  A    between atoms: _112  and  _115
REMARK   51  A    between atoms: _115  and  _116
REMARK   52  A    between atoms: _126  and  _128
REMARK   53  A    between atoms: _128  and  _129
REMARK   54  A    between atoms: _128  and  _131
REMARK   55  A    between atoms: _131  and  _132
REMARK   56  A    between atoms: _135  and  _137
REMARK   57  A    between atoms: _137  and  _138
REMARK   58  A    between atoms: _137  and  _140
REMARK   59  A    between atoms: _140  and  _141
REMARK   60  A    between atoms: _141  and  _142
REMARK   61  A    between atoms: _142  and  _143
REMARK   62  A    between atoms: _152  and  _154
REMARK   63  A    between atoms: _154  and  _155
REMARK   64  A    between atoms: _158  and  _160
REMARK   65  A    between atoms: _160  and  _161
REMARK   66  A    between atoms: _160  and  _163
REMARK   67  A    between atoms: _163  and  _164
REMARK   68  A    between atoms: _164  and  _165
REMARK   69  A    between atoms: _165  and  _166
REMARK   70  A    between atoms: _166  and  _167
REMARK   71  A    between atoms: _171  and  _173
REMARK   72  A    between atoms: _173  and  _174
REMARK   73  A    between atoms: _173  and  _176
REMARK   74  A    between atoms: _176  and  _177
REMARK   75  A    between atoms: _177  and  _178
REMARK   76  A    between atoms: _178  and  _179
REMARK   77  A    between atoms: _179  and  _180
REMARK   78  A    between atoms: _184  and  _186
REMARK   79  A    between atoms: _186  and  _187
REMARK   80  A    between atoms: _190  and  _192
REMARK   81  A    between atoms: _192  and  _193
REMARK   82  A    between atoms: _192  and  _195
REMARK   83  A    between atoms: _195  and  _196
REMARK   84  A    between atoms: _206  and  _208
REMARK   85  A    between atoms: _208  and  _209
REMARK   86  A    between atoms: _208  and  _211
REMARK   87  A    between atoms: _211  and  _212
REMARK   88  A    between atoms: _215  and  _217
REMARK   89  A    between atoms: _217  and  _218
REMARK   90  A    between atoms: _217  and  _220
REMARK   91  A    between atoms: _220  and  _221
REMARK   92  A    between atoms: _226  and  _228
REMARK   93  A    between atoms: _228  and  _229
REMARK   94  A    between atoms: _228  and  _231
REMARK   95  A    between atoms: _231  and  _232
REMARK   96  A    between atoms: _234  and  _236
REMARK   97  A    between atoms: _236  and  _237
REMARK   98  A    between atoms: _236  and  _239
REMARK   99  A    between atoms: _242  and  _244
REMARK  100  A    between atoms: _244  and  _245
REMARK  101  A    between atoms: _248  and  _250
REMARK  102  A    between atoms: _250  and  _251
REMARK  103  A    between atoms: _253  and  _255
REMARK  104  A    between atoms: _255  and  _256
REMARK  105  A    between atoms: _255  and  _258
REMARK  106  A    between atoms: _258  and  _259
REMARK  107  A    between atoms: _263  and  MN_513
REMARK  108  A    between atoms: _265  and  _266
REMARK  109  A    between atoms: _271  and  _273
REMARK  110  A    between atoms: _273  and  _274
REMARK  111  A    between atoms: _273  and  _276
REMARK  112  A    between atoms: _276  and  _277
REMARK  113  A    between atoms: _277  and  _278
REMARK  114  A    between atoms: _283  and  _285
REMARK  115  A    between atoms: _285  and  _286
REMARK  116  A    between atoms: _285  and  _288
REMARK  117  A    between atoms: _288  and  _289
REMARK  118  A    between atoms: _289  and  _290
REMARK  119  A    between atoms: _290  and  _291
REMARK  120  A    between atoms: _300  and  _302
REMARK  121  A    between atoms: _302  and  _303
REMARK  122  A    between atoms: _302  and  _305
REMARK  123  A    between atoms: _305  and  _306
REMARK  124  A    between atoms: _306  and  _307
REMARK  125  A    between atoms: _307  and  _308
REMARK  126  A    between atoms: _317  and  _319
REMARK  127  A    between atoms: _319  and  _320
REMARK  128  A    between atoms: _319  and  _322
REMARK  129  A    between atoms: _322  and  _323
REMARK  130  A    between atoms: _328  and  _329
REMARK  131  A    between atoms: _331  and  _333
REMARK  132  A    between atoms: _333  and  _334
REMARK  133  A    between atoms: _333  and  _336
REMARK  134  A    between atoms: _336  and  _337
REMARK  135  A    between atoms: _337  and  _338
REMARK  136  A    between atoms: _338  and  _340
REMARK  137  A    between atoms: _340  and  MG_514
REMARK  138  A    between atoms: _341  and  _343
REMARK  139  A    between atoms: _343  and  _344
REMARK  140  A    between atoms: _343  and  _346
REMARK  141  A    between atoms: _346  and  _347
REMARK  142  A    between atoms: _353  and  _355
REMARK  143  A    between atoms: _355  and  _356
REMARK  144  A    between atoms: _355  and  _358
REMARK  145  A    between atoms: _358  and  _359
REMARK  146  A    between atoms: _364  and  _365
REMARK  147  A    between atoms: _367  and  _369
REMARK  148  A    between atoms: _369  and  _370
REMARK  149  A    between atoms: _373  and  _375
REMARK  150  A    between atoms: _375  and  _376
REMARK  151  A    between atoms: _375  and  _378
REMARK  152  A    between atoms: _381  and  _383
REMARK  153  A    between atoms: _393  and  _396
REMARK  154  A    between atoms: _396  and  _397
REMARK  155  A    between atoms: _404  and  _405
REMARK  156  A    between atoms: _412  and  _414
REMARK  157  A    between atoms: _414  and  _415
REMARK  158  A    between atoms: _414  and  _417
REMARK  159  A    between atoms: _420  and  _422
REMARK  160  A    between atoms: _422  and  _423
REMARK  161  A    between atoms: _422  and  _425
REMARK  162  A    between atoms: _428  and  _429
REMARK  163  A    between atoms: _434  and  _436
REMARK  164  A    between atoms: _436  and  _437
REMARK  165  A    between atoms: _436  and  _439
REMARK  166  A    between atoms: _442  and  _444
REMARK  167  A    between atoms: _444  and  _445
REMARK  168  A    between atoms: _444  and  _447
REMARK  169  A    between atoms: _447  and  _448
REMARK  170  A    between atoms: _451  and  _453
REMARK  171  A    between atoms: _453  and  _454
REMARK  172  A    between atoms: _453  and  _456
REMARK  173  A    between atoms: _456  and  _457
REMARK  174  A    between atoms: _457  and  _458
REMARK  175  A    between atoms: _461  and  _463
REMARK  176  A    between atoms: _463  and  _464
REMARK  177  A    between atoms: _463  and  _466
REMARK  178  A    between atoms: _466  and  _467
REMARK  179  A    between atoms: _470  and  _471
REMARK  180  A    between atoms: _476  and  _478
REMARK  181  A    between atoms: _478  and  _479
REMARK  182  A    between atoms: _478  and  _481
REMARK  183  A    between atoms: _481  and  _482
REMARK  184  A    between atoms: _492  and  _494
REMARK  185  A    between atoms: _494  and  _495
REMARK  186  A    between atoms: _494  and  _497
REMARK  187  A    between atoms: _497  and  _498
REMARK  188  A    between atoms: _498  and  _499
REMARK  189  A    between atoms: _501  and  _503
REMARK  190  A    between atoms: _503  and  _504
REMARK  191  A    between atoms: _503  and  _506
REMARK  192  A    between atoms: _506  and  _507
REMARK  193  A    between atoms: _507  and  _508
REMARK                            x       y       z     vdW  Elec       q    Type
REMARK                         _______ _______ _______ _____ _____    ______ ____
ROOT
ATOM      1  C   ARG A   1       6.696  -4.650  16.789  0.00  0.00    +0.238 C 
ATOM      2  N   ARG A   2       6.827  -3.323  16.841  0.00  0.00    -0.298 N 
ATOM      3  H   ARG A   2       6.023  -2.709  17.083  0.00  0.00    +0.150 HD
ATOM      4  O   ARG A   1       7.656  -5.386  16.577  0.00  0.00    -0.274 OA
ENDROOT
BRANCH   1   5
ATOM      5  CA  ARG A   1       5.302  -5.215  17.014  0.00  0.00    +0.145 C 
BRANCH   5   6
ATOM      6  N   ARG A   1       4.752  -4.684  18.248  0.00  0.00    -0.238 NA
ATOM      7  H   ARG A   1       3.877  -4.124  18.203  0.00  0.00    +0.142 HD
ENDBRANCH   5   6
BRANCH   5   8
ATOM      8  CB  ARG A   1       4.391  -4.856  15.839  0.00  0.00    +0.030 C 
BRANCH   8   9
ATOM      9  CG  ARG A   1       4.965  -5.146  14.466  0.00  0.00    +0.045 C 
BRANCH   9  10
ATOM     10  CD  ARG A   1       3.882  -5.014  13.403  0.00  0.00    +0.174 C 
BRANCH  10  11
ATOM     11  NE  ARG A   1       3.331  -3.663  13.327  0.00  0.00    -0.265 N 
ATOM     12  HE  ARG A   1       2.459  -3.462  13.857  0.00  0.00    +0.259 HD
ATOM     13  CZ  ARG A   1       3.874  -2.673  12.623  0.00  0.00    +0.342 C 
ATOM     14  NH2 ARG A   1       3.299  -1.479  12.610  0.00  0.00    -0.292 N 
ATOM     15 HH21 ARG A   1       2.425  -1.317  13.149  0.00  0.00    +0.255 HD
ATOM     16 HH22 ARG A   1       3.722  -0.704  12.060  0.00  0.00    +0.255 HD
ATOM     17  NH1 ARG A   1       4.994  -2.867  11.932  0.00  0.00    -0.292 N 
ATOM     18 HH11 ARG A   1       5.454  -3.800  11.938  0.00  0.00    +0.255 HD
ATOM     19 HH12 ARG A   1       5.410  -2.086  11.385  0.00  0.00    +0.255 HD
ENDBRANCH  10  11
ENDBRANCH   9  10
ENDBRANCH   8   9
ENDBRANCH   5   8
ENDBRANCH   1   5
BRANCH   2  20
ATOM     20  CA  ARG A   2       8.152  -2.766  16.543  0.00  0.00    +0.137 C 
BRANCH  20  21
ATOM     21  C   ARG A   2       9.134  -3.097  17.660  0.00  0.00    +0.227 C 
ATOM     22  O   ARG A   2      10.351  -3.235  17.469  0.00  0.00    -0.286 OA
ENDBRANCH  20  21
BRANCH  20  23
ATOM     23  CB  ARG A   2       8.010  -1.271  16.273  0.00  0.00    +0.031 C 
BRANCH  23  24
ATOM     24  CG  ARG A   2       7.362  -0.996  14.911  0.00  0.00    +0.045 C 
BRANCH  24  25
ATOM     25  CD  ARG A   2       7.987  -1.893  13.847  0.00  0.00    +0.174 C 
BRANCH  25  26
ATOM     26  NE  ARG A   2       9.209  -1.301  13.301  0.00  0.00    -0.265 N 
ATOM     27  HE  ARG A   2       9.618  -0.484  13.798  0.00  0.00    +0.259 HD
ATOM     28  CZ  ARG A   2       9.830  -1.740  12.212  0.00  0.00    +0.342 C 
ATOM     29  NH2 ARG A   2      10.938  -1.139  11.778  0.00  0.00    -0.292 N 
ATOM     30 HH21 ARG A   2      11.322  -0.321  12.293  0.00  0.00    +0.255 HD
ATOM     31 HH22 ARG A   2      11.419  -1.488  10.925  0.00  0.00    +0.255 HD
ATOM     32  NH1 ARG A   2       9.354  -2.786  11.542  0.00  0.00    -0.292 N 
ATOM     33 HH11 ARG A   2       8.491  -3.265  11.870  0.00  0.00    +0.255 HD
ATOM     34 HH12 ARG A   2       9.845  -3.125  10.690  0.00  0.00    +0.255 HD
ENDBRANCH  25  26
ENDBRANCH  24  25
ENDBRANCH  23  24
ENDBRANCH  20  23
ENDBRANCH   2  20
TORSDOF 12
REMARK  Name = ../refined-set-2016/1q54/1q54_pocket.pdb
REMARK  193 active torsions:
REMARK  status: ('A' for Active; 'I' for Inactive)
REMARK    1  A    between atoms: _1  and  _5
REMARK    2  A    between atoms: _5  and  _6
REMARK    3  A    between atoms: _5  and  _8
REMARK    4  A    between atoms: _8  and  _9
REMARK    5  A    between atoms: _9  and  _10
REMARK    6  A    between atoms: _13  and  _15
REMARK    7  A    between atoms: _15  and  _16
REMARK    8  A    between atoms: _15  and  _18
REMARK    9  A    between atoms: _18  and  _19
REMARK   10  A    between atoms: _24  and  _26
REMARK   11  A    between atoms: _26  and  _27
REMARK   12  A    between atoms: _26  and  _29
REMARK   13  A    between atoms: _32  and  _34
REMARK   14  A    between atoms: _34  and  _35
REMARK   15  A    between atoms: _34  and  _37
REMARK   16  A    between atoms: _37  and  _38
REMARK   17  A    between atoms: _38  and  _39
REMARK   18  A    between atoms: _39  and  _40
REMARK   19  A    between atoms: _40  and  _41
REMARK   20  A    between atoms: _45  and  _47
REMARK   21  A    between atoms: _47  and  _48
REMARK   22  A    between atoms: _47  and  _50
REMARK   23  A    between atoms: _50  and  _51
REMARK   24  A    between atoms: _55  and  MN_513
REMARK   25  A    between atoms: _56  and  _58
REMARK   26  A    between atoms: _58  and  _59
REMARK   27  A    between atoms: _58  and  _61
REMARK   28  A    between atoms: _61  and  _62
REMARK   29  A    between atoms: _66  and  MN_513
REMARK   30  A    between atoms: _67  and  _69
REMARK   31  A    between atoms: _69  and  _70
REMARK   32  A    between atoms: _69  and  _72
REMARK   33  A    between atoms: _72  and  _73
REMARK   34  A    between atoms: _76  and  _78
REMARK   35  A    between atoms: _78  and  _79
REMARK   36  A    between atoms: _82  and  _84
REMARK   37  A    between atoms: _84  and  _85
REMARK   38  A    between atoms: _84  and  _87
REMARK   39  A    between atoms: _87  and  _88
REMARK   40  A    between atoms: _94  and  _96
REMARK   41  A    between atoms: _96  and  _97
REMARK   42  A    between atoms: _96  and  _99
REMARK   43  A    between atoms: _99  and  _100
REMARK   44  A    between atoms: _102  and  _104
REMARK   45  A    between atoms: _104  and  _105
REMARK   46  A    between atoms: _104  and  _107
REMARK   47  A    between atoms: _107  and  _108
REMARK   48  A    between atoms: _110  and  _112
REMARK   49  A    between atoms: _112  and  _113
REMARK   50  A    between atoms: _112  and  _115
REMARK   51  A    between atoms: _115  and  _116
REMARK   52  A    between atoms: _126  and  _128
REMARK   53  A    between atoms: _128  and  _129
REMARK   54  A    between atoms: _128  and  _131
REMARK   55  A    between atoms: _131  and  _132
REMARK   56  A    between atoms: _135  and  _137
REMARK   57  A    between atoms: _137  and  _138
REMARK   58  A    between atoms: _137  and  _140
REMARK   59  A    between atoms: _140  and  _141
REMARK   60  A    between atoms: _141  and  _142
REMARK   61  A    between atoms: _142  and  _143
REMARK   62  A    between atoms: _152  and  _154
REMARK   63  A    between atoms: _154  and  _155
REMARK   64  A    between atoms: _158  and  _160
REMARK   65  A    between atoms: _160  and  _161
REMARK   66  A    between atoms: _160  and  _163
REMARK   67  A    between atoms: _163  and  _164
REMARK   68  A    between atoms: _164  and  _165
REMARK   69  A    between atoms: _165  and  _166
REMARK   70  A    between atoms: _166  and  _167
REMARK   71  A    between atoms: _171  and  _173
REMARK   72  A    between atoms: _173  and  _174
REMARK   73  A    between atoms: _173  and  _176
REMARK   74  A    between atoms: _176  and  _177
REMARK   75  A    between atoms: _177  and  _178
REMARK   76  A    between atoms: _178  and  _179
REMARK   77  A    between atoms: _179  and  _180
REMARK   78  A    between atoms: _184  and  _186
REMARK   79  A    between atoms: _186  and  _187
REMARK   80  A    between atoms: _190  and  _192
REMARK   81  A    between atoms: _192  and  _193
REMARK   82  A    between atoms: _192  and  _195
REMARK   83  A    between atoms: _195  and  _196
REMARK   84  A    between atoms: _206  and  _208
REMARK   85  A    between atoms: _208  and  _209
REMARK   86  A    between atoms: _208  and  _211
REMARK   87  A    between atoms: _211  and  _212
REMARK   88  A    between atoms: _215  and  _217
REMARK   89  A    between atoms: _217  and  _218
REMARK   90  A    between atoms: _217  and  _220
REMARK   91  A    between atoms: _220  and  _221
REMARK   92  A    between atoms: _226  and  _228
REMARK   93  A    between atoms: _228  and  _229
REMARK   94  A    between atoms: _228  and  _231
REMARK   95  A    between atoms: _231  and  _232
REMARK   96  A    between atoms: _234  and  _236
REMARK   97  A    between atoms: _236  and  _237
REMARK   98  A    between atoms: _236  and  _239
REMARK   99  A    between atoms: _242  and  _244
REMARK  100  A    between atoms: _244  and  _245
REMARK  101  A    between atoms: _248  and  _250
REMARK  102  A    between atoms: _250  and  _251
REMARK  103  A    between atoms: _253  and  _255
REMARK  104  A    between atoms: _255  and  _256
REMARK  105  A    between atoms: _255  and  _258
REMARK  106  A    between atoms: _258  and  _259
REMARK  107  A    between atoms: _263  and  MN_513
REMARK  108  A    between atoms: _265  and  _266
REMARK  109  A    between atoms: _271  and  _273
REMARK  110  A    between atoms: _273  and  _274
REMARK  111  A    between atoms: _273  and  _276
REMARK  112  A    between atoms: _276  and  _277
REMARK  113  A    between atoms: _277  and  _278
REMARK  114  A    between atoms: _283  and  _285
REMARK  115  A    between atoms: _285  and  _286
REMARK  116  A    between atoms: _285  and  _288
REMARK  117  A    between atoms: _288  and  _289
REMARK  118  A    between atoms: _289  and  _290
REMARK  119  A    between atoms: _290  and  _291
REMARK  120  A    between atoms: _300  and  _302
REMARK  121  A    between atoms: _302  and  _303
REMARK  122  A    between atoms: _302  and  _305
REMARK  123  A    between atoms: _305  and  _306
REMARK  124  A    between atoms: _306  and  _307
REMARK  125  A    between atoms: _307  and  _308
REMARK  126  A    between atoms: _317  and  _319
REMARK  127  A    between atoms: _319  and  _320
REMARK  128  A    between atoms: _319  and  _322
REMARK  129  A    between atoms: _322  and  _323
REMARK  130  A    between atoms: _328  and  _329
REMARK  131  A    between atoms: _331  and  _333
REMARK  132  A    between atoms: _333  and  _334
REMARK  133  A    between atoms: _333  and  _336
REMARK  134  A    between atoms: _336  and  _337
REMARK  135  A    between atoms: _337  and  _338
REMARK  136  A    between atoms: _338  and  _340
REMARK  137  A    between atoms: _340  and  MG_514
REMARK  138  A    between atoms: _341  and  _343
REMARK  139  A    between atoms: _343  and  _344
REMARK  140  A    between atoms: _343  and  _346
REMARK  141  A    between atoms: _346  and  _347
REMARK  142  A    between atoms: _353  and  _355
REMARK  143  A    between atoms: _355  and  _356
REMARK  144  A    between atoms: _355  and  _358
REMARK  145  A    between atoms: _358  and  _359
REMARK  146  A    between atoms: _364  and  _365
REMARK  147  A    between atoms: _367  and  _369
REMARK  148  A    between atoms: _369  and  _370
REMARK  149  A    between atoms: _373  and  _375
REMARK  150  A    between atoms: _375  and  _376
REMARK  151  A    between atoms: _375  and  _378
REMARK  152  A    between atoms: _381  and  _383
REMARK  153  A    between atoms: _393  and  _396
REMARK  154  A    between atoms: _396  and  _397
REMARK  155  A    between atoms: _404  and  _405
REMARK  156  A    between atoms: _412  and  _414
REMARK  157  A    between atoms: _414  and  _415
REMARK  158  A    between atoms: _414  and  _417
REMARK  159  A    between atoms: _420  and  _422
REMARK  160  A    between atoms: _422  and  _423
REMARK  161  A    between atoms: _422  and  _425
REMARK  162  A    between atoms: _428  and  _429
REMARK  163  A    between atoms: _434  and  _436
REMARK  164  A    between atoms: _436  and  _437
REMARK  165  A    between atoms: _436  and  _439
REMARK  166  A    between atoms: _442  and  _444
REMARK  167  A    between atoms: _444  and  _445
REMARK  168  A    between atoms: _444  and  _447
REMARK  169  A    between atoms: _447  and  _448
REMARK  170  A    between atoms: _451  and  _453
REMARK  171  A    between atoms: _453  and  _454
REMARK  172  A    between atoms: _453  and  _456
REMARK  173  A    between atoms: _456  and  _457
REMARK  174  A    between atoms: _457  and  _458
REMARK  175  A    between atoms: _461  and  _463
REMARK  176  A    between atoms: _463  and  _464
REMARK  177  A    between atoms: _463  and  _466
REMARK  178  A    between atoms: _466  and  _467
REMARK  179  A    between atoms: _470  and  _471
REMARK  180  A    between atoms: _476  and  _478
REMARK  181  A    between atoms: _478  and  _479
REMARK  182  A    between atoms: _478  and  _481
REMARK  183  A    between atoms: _481  and  _482
REMARK  184  A    between atoms: _492  and  _494
REMARK  185  A    between atoms: _494  and  _495
REMARK  186  A    between atoms: _494  and  _497
REMARK  187  A    between atoms: _497  and  _498
REMARK  188  A    between atoms: _498  and  _499
REMARK  189  A    between atoms: _501  and  _503
REMARK  190  A    between atoms: _503  and  _504
REMARK  191  A    between atoms: _503  and  _506
REMARK  192  A    between atoms: _506  and  _507
REMARK  193  A    between atoms: _507  and  _508
REMARK                            x       y       z     vdW  Elec       q    Type
REMARK                         _______ _______ _______ _____ _____    ______ ____
ROOT
ATOM      1  C   TYR A   1      12.333  -5.683  15.484  0.00  0.00    +0.000 C 
ATOM      2  N   UNK A   2      12.412  -4.543  16.138  0.00  0.00    +0.000 N 
ATOM      3  H   UNK A   2      11.582  -4.189  16.655  0.00  0.00    +0.000 HD
ATOM      4  O   TYR A   1      13.298  -6.204  14.924  0.00  0.00    +0.000 OA
ENDROOT
BRANCH   1   5
ATOM      5  CA  TYR A   1      10.973  -6.375  15.383  0.00  0.00    +0.000 C 
BRANCH   5   6
ATOM      6  N   TYR A   1      10.234  -6.361  16.636  0.00  0.00    +0.000 NA
ATOM      7  H   TYR A   1       9.427  -5.719  16.771  0.00  0.00    +0.000 HD
ENDBRANCH   5   6
BRANCH   5   8
ATOM      8  CB  TYR A   1      10.143  -5.724  14.265  0.00  0.00    +0.000 C 
BRANCH   8   9
ATOM      9  CG  TYR A   1      10.877  -5.773  12.940  0.00  0.00    +0.000 A 
ATOM     10  CD2 TYR A   1      11.564  -4.669  12.452  0.00  0.00    +0.000 A 
ATOM     11  CE2 TYR A   1      12.228  -4.731  11.247  0.00  0.00    +0.000 A 
ATOM     12  CZ  TYR A   1      12.206  -5.897  10.512  0.00  0.00    +0.000 A 
ATOM     13  CE1 TYR A   1      11.527  -7.005  10.970  0.00  0.00    +0.000 A 
ATOM     14  CD1 TYR A   1      10.863  -6.939  12.187  0.00  0.00    +0.000 A 
BRANCH  12  15
ATOM     15  OH  TYR A   1      12.878  -5.920   9.311  0.00  0.00    +0.000 OA
ATOM     16  HH  TYR A   1      13.838  -5.733   9.467  0.00  0.00    +0.000 HD
ENDBRANCH  12  15
ENDBRANCH   8   9
ENDBRANCH   5   8
ENDBRANCH   1   5
BRANCH   2  17
ATOM     17  C   UNK A   2      13.652  -3.770  16.146  0.00  0.00    +0.000 C 
BRANCH  17  18
ATOM     18  C   UNK A   2      14.586  -4.235  17.261  0.00  0.00    +0.000 C 
ATOM     19  O   UNK A   2      15.807  -4.253  17.136  0.00  0.00    +0.000 OA
ENDBRANCH  17  18
BRANCH  17  20
ATOM     20  C   UNK A   2      13.380  -2.274  16.316  0.00  0.00    +0.000 C 
BRANCH  20  21
ATOM     21  C   UNK A   2      12.276  -1.692  15.444  0.00  0.00    +0.000 C 
BRANCH  21  22
ATOM     22  C   UNK A   2      12.236  -0.181  15.434  0.00  0.00    +0.000 C 
ATOM     23  O   UNK A   2      12.975   0.444  16.223  0.00  0.00    +0.000 OA
BRANCH  22  24
ATOM     24  O   UNK A   2      11.474   0.430  14.649  0.00  0.00    +0.000 OA
BRANCH  24  25
ATOM     25 MG   UNK A   2      11.381   2.261  14.169  0.00  0.00    +0.000 Mg
ATOM     26  O   UNK A   2      12.358   2.736  15.789  0.00  0.00    +0.000 OA
ENDBRANCH  24  25
ENDBRANCH  22  24
ENDBRANCH  21  22
ENDBRANCH  20  21
ENDBRANCH  17  20
ENDBRANCH   2  17
TORSDOF 12
REMARK  Name = ../refined-set-2016/1q54/1q54_pocket.pdb
REMARK  193 active torsions:
REMARK  status: ('A' for Active; 'I' for Inactive)
REMARK    1  A    between atoms: _1  and  _5
REMARK    2  A    between atoms: _5  and  _6
REMARK    3  A    between atoms: _5  and  _8
REMARK    4  A    between atoms: _8  and  _9
REMARK    5  A    between atoms: _9  and  _10
REMARK    6  A    between atoms: _13  and  _15
REMARK    7  A    between atoms: _15  and  _16
REMARK    8  A    between atoms: _15  and  _18
REMARK    9  A    between atoms: _18  and  _19
REMARK   10  A    between atoms: _24  and  _26
REMARK   11  A    between atoms: _26  and  _27
REMARK   12  A    between atoms: _26  and  _29
REMARK   13  A    between atoms: _32  and  _34
REMARK   14  A    between atoms: _34  and  _35
REMARK   15  A    between atoms: _34  and  _37
REMARK   16  A    between atoms: _37  and  _38
REMARK   17  A    between atoms: _38  and  _39
REMARK   18  A    between atoms: _39  and  _40
REMARK   19  A    between atoms: _40  and  _41
REMARK   20  A    between atoms: _45  and  _47
REMARK   21  A    between atoms: _47  and  _48
REMARK   22  A    between atoms: _47  and  _50
REMARK   23  A    between atoms: _50  and  _51
REMARK   24  A    between atoms: _55  and  MN_513
REMARK   25  A    between atoms: _56  and  _58
REMARK   26  A    between atoms: _58  and  _59
REMARK   27  A    between atoms: _58  and  _61
REMARK   28  A    between atoms: _61  and  _62
REMARK   29  A    between atoms: _66  and  MN_513
REMARK   30  A    between atoms: _67  and  _69
REMARK   31  A    between atoms: _69  and  _70
REMARK   32  A    between atoms: _69  and  _72
REMARK   33  A    between atoms: _72  and  _73
REMARK   34  A    between atoms: _76  and  _78
REMARK   35  A    between atoms: _78  and  _79
REMARK   36  A    between atoms: _82  and  _84
REMARK   37  A    between atoms: _84  and  _85
REMARK   38  A    between atoms: _84  and  _87
REMARK   39  A    between atoms: _87  and  _88
REMARK   40  A    between atoms: _94  and  _96
REMARK   41  A    between atoms: _96  and  _97
REMARK   42  A    between atoms: _96  and  _99
REMARK   43  A    between atoms: _99  and  _100
REMARK   44  A    between atoms: _102  and  _104
REMARK   45  A    between atoms: _104  and  _105
REMARK   46  A    between atoms: _104  and  _107
REMARK   47  A    between atoms: _107  and  _108
REMARK   48  A    between atoms: _110  and  _112
REMARK   49  A    between atoms: _112  and  _113
REMARK   50  A    between atoms: _112  and  _115
REMARK   51  A    between atoms: _115  and  _116
REMARK   52  A    between atoms: _126  and  _128
REMARK   53  A    between atoms: _128  and  _129
REMARK   54  A    between atoms: _128  and  _131
REMARK   55  A    between atoms: _131  and  _132
REMARK   56  A    between atoms: _135  and  _137
REMARK   57  A    between atoms: _137  and  _138
REMARK   58  A    between atoms: _137  and  _140
REMARK   59  A    between atoms: _140  and  _141
REMARK   60  A    between atoms: _141  and  _142
REMARK   61  A    between atoms: _142  and  _143
REMARK   62  A    between atoms: _152  and  _154
REMARK   63  A    between atoms: _154  and  _155
REMARK   64  A    between atoms: _158  and  _160
REMARK   65  A    between atoms: _160  and  _161
REMARK   66  A    between atoms: _160  and  _163
REMARK   67  A    between atoms: _163  and  _164
REMARK   68  A    between atoms: _164  and  _165
REMARK   69  A    between atoms: _165  and  _166
REMARK   70  A    between atoms: _166  and  _167
REMARK   71  A    between atoms: _171  and  _173
REMARK   72  A    between atoms: _173  and  _174
REMARK   73  A    between atoms: _173  and  _176
REMARK   74  A    between atoms: _176  and  _177
REMARK   75  A    between atoms: _177  and  _178
REMARK   76  A    between atoms: _178  and  _179
REMARK   77  A    between atoms: _179  and  _180
REMARK   78  A    between atoms: _184  and  _186
REMARK   79  A    between atoms: _186  and  _187
REMARK   80  A    between atoms: _190  and  _192
REMARK   81  A    between atoms: _192  and  _193
REMARK   82  A    between atoms: _192  and  _195
REMARK   83  A    between atoms: _195  and  _196
REMARK   84  A    between atoms: _206  and  _208
REMARK   85  A    between atoms: _208  and  _209
REMARK   86  A    between atoms: _208  and  _211
REMARK   87  A    between atoms: _211  and  _212
REMARK   88  A    between atoms: _215  and  _217
REMARK   89  A    between atoms: _217  and  _218
REMARK   90  A    between atoms: _217  and  _220
REMARK   91  A    between atoms: _220  and  _221
REMARK   92  A    between atoms: _226  and  _228
REMARK   93  A    between atoms: _228  and  _229
REMARK   94  A    between atoms: _228  and  _231
REMARK   95  A    between atoms: _231  and  _232
REMARK   96  A    between atoms: _234  and  _236
REMARK   97  A    between atoms: _236  and  _237
REMARK   98  A    between atoms: _236  and  _239
REMARK   99  A    between atoms: _242  and  _244
REMARK  100  A    between atoms: _244  and  _245
REMARK  101  A    between atoms: _248  and  _250
REMARK  102  A    between atoms: _250  and  _251
REMARK  103  A    between atoms: _253  and  _255
REMARK  104  A    between atoms: _255  and  _256
REMARK  105  A    between atoms: _255  and  _258
REMARK  106  A    between atoms: _258  and  _259
REMARK  107  A    between atoms: _263  and  MN_513
REMARK  108  A    between atoms: _265  and  _266
REMARK  109  A    between atoms: _271  and  _273
REMARK  110  A    between atoms: _273  and  _274
REMARK  111  A    between atoms: _273  and  _276
REMARK  112  A    between atoms: _276  and  _277
REMARK  113  A    between atoms: _277  and  _278
REMARK  114  A    between atoms: _283  and  _285
REMARK  115  A    between atoms: _285  and  _286
REMARK  116  A    between atoms: _285  and  _288
REMARK  117  A    between atoms: _288  and  _289
REMARK  118  A    between atoms: _289  and  _290
REMARK  119  A    between atoms: _290  and  _291
REMARK  120  A    between atoms: _300  and  _302
REMARK  121  A    between atoms: _302  and  _303
REMARK  122  A    between atoms: _302  and  _305
REMARK  123  A    between atoms: _305  and  _306
REMARK  124  A    between atoms: _306  and  _307
REMARK  125  A    between atoms: _307  and  _308
REMARK  126  A    between atoms: _317  and  _319
REMARK  127  A    between atoms: _319  and  _320
REMARK  128  A    between atoms: _319  and  _322
REMARK  129  A    between atoms: _322  and  _323
REMARK  130  A    between atoms: _328  and  _329
REMARK  131  A    between atoms: _331  and  _333
REMARK  132  A    between atoms: _333  and  _334
REMARK  133  A    between atoms: _333  and  _336
REMARK  134  A    between atoms: _336  and  _337
REMARK  135  A    between atoms: _337  and  _338
REMARK  136  A    between atoms: _338  and  _340
REMARK  137  A    between atoms: _340  and  MG_514
REMARK  138  A    between atoms: _341  and  _343
REMARK  139  A    between atoms: _343  and  _344
REMARK  140  A    between atoms: _343  and  _346
REMARK  141  A    between atoms: _346  and  _347
REMARK  142  A    between atoms: _353  and  _355
REMARK  143  A    between atoms: _355  and  _356
REMARK  144  A    between atoms: _355  and  _358
REMARK  145  A    between atoms: _358  and  _359
REMARK  146  A    between atoms: _364  and  _365
REMARK  147  A    between atoms: _367  and  _369
REMARK  148  A    between atoms: _369  and  _370
REMARK  149  A    between atoms: _373  and  _375
REMARK  150  A    between atoms: _375  and  _376
REMARK  151  A    between atoms: _375  and  _378
REMARK  152  A    between atoms: _381  and  _383
REMARK  153  A    between atoms: _393  and  _396
REMARK  154  A    between atoms: _396  and  _397
REMARK  155  A    between atoms: _404  and  _405
REMARK  156  A    between atoms: _412  and  _414
REMARK  157  A    between atoms: _414  and  _415
REMARK  158  A    between atoms: _414  and  _417
REMARK  159  A    between atoms: _420  and  _422
REMARK  160  A    between atoms: _422  and  _423
REMARK  161  A    between atoms: _422  and  _425
REMARK  162  A    between atoms: _428  and  _429
REMARK  163  A    between atoms: _434  and  _436
REMARK  164  A    between atoms: _436  and  _437
REMARK  165  A    between atoms: _436  and  _439
REMARK  166  A    between atoms: _442  and  _444
REMARK  167  A    between atoms: _444  and  _445
REMARK  168  A    between atoms: _444  and  _447
REMARK  169  A    between atoms: _447  and  _448
REMARK  170  A    between atoms: _451  and  _453
REMARK  171  A    between atoms: _453  and  _454
REMARK  172  A    between atoms: _453  and  _456
REMARK  173  A    between atoms: _456  and  _457
REMARK  174  A    between atoms: _457  and  _458
REMARK  175  A    between atoms: _461  and  _463
REMARK  176  A    between atoms: _463  and  _464
REMARK  177  A    between atoms: _463  and  _466
REMARK  178  A    between atoms: _466  and  _467
REMARK  179  A    between atoms: _470  and  _471
REMARK  180  A    between atoms: _476  and  _478
REMARK  181  A    between atoms: _478  and  _479
REMARK  182  A    between atoms: _478  and  _481
REMARK  183  A    between atoms: _481  and  _482
REMARK  184  A    between atoms: _492  and  _494
REMARK  185  A    between atoms: _494  and  _495
REMARK  186  A    between atoms: _494  and  _497
REMARK  187  A    between atoms: _497  and  _498
REMARK  188  A    between atoms: _498  and  _499
REMARK  189  A    between atoms: _501  and  _503
REMARK  190  A    between atoms: _503  and  _504
REMARK  191  A    between atoms: _503  and  _506
REMARK  192  A    between atoms: _506  and  _507
REMARK  193  A    between atoms: _507  and  _508
REMARK                            x       y       z     vdW  Elec       q    Type
REMARK                         _______ _______ _______ _____ _____    ______ ____
ROOT
ATOM      1  CB  PHE A   1       3.247  14.033  20.099  0.00  0.00    +0.051 C 
ENDROOT
BRANCH   1   2
ATOM      2  CG  PHE A   1       4.573  14.475  19.497  0.00  0.00    -0.020 A 
ATOM      3  CD2 PHE A   1       5.013  15.780  19.622  0.00  0.00    -0.004 A 
ATOM      4  CE2 PHE A   1       6.210  16.191  19.070  0.00  0.00    -0.000 A 
ATOM      5  CZ  PHE A   1       6.990  15.282  18.378  0.00  0.00    -0.000 A 
ATOM      6  CE1 PHE A   1       6.564  13.970  18.252  0.00  0.00    -0.000 A 
ATOM      7  CD1 PHE A   1       5.360  13.564  18.808  0.00  0.00    -0.004 A 
ENDBRANCH   1   2
BRANCH   1   8
ATOM      8  CA  PHE A   1       2.071  14.906  19.667  0.00  0.00    +0.137 C 
BRANCH   8   9
ATOM      9  N   PHE A   1       0.844  14.483  20.351  0.00  0.00    -0.239 NA
ATOM     10  H   PHE A   1       0.834  13.638  20.957  0.00  0.00    +0.142 HD
ENDBRANCH   8   9
BRANCH   8  11
ATOM     11  C   PHE A   1       1.902  14.835  18.150  0.00  0.00    +0.224 C 
ATOM     12  O   PHE A   1       1.484  13.819  17.597  0.00  0.00    -0.287 OA
ENDBRANCH   8  11
ENDBRANCH   1   8
TORSDOF 4
REMARK  Name = ../refined-set-2016/1q54/1q54_pocket.pdb
REMARK  193 active torsions:
REMARK  status: ('A' for Active; 'I' for Inactive)
REMARK    1  A    between atoms: _1  and  _5
REMARK    2  A    between atoms: _5  and  _6
REMARK    3  A    between atoms: _5  and  _8
REMARK    4  A    between atoms: _8  and  _9
REMARK    5  A    between atoms: _9  and  _10
REMARK    6  A    between atoms: _13  and  _15
REMARK    7  A    between atoms: _15  and  _16
REMARK    8  A    between atoms: _15  and  _18
REMARK    9  A    between atoms: _18  and  _19
REMARK   10  A    between atoms: _24  and  _26
REMARK   11  A    between atoms: _26  and  _27
REMARK   12  A    between atoms: _26  and  _29
REMARK   13  A    between atoms: _32  and  _34
REMARK   14  A    between atoms: _34  and  _35
REMARK   15  A    between atoms: _34  and  _37
REMARK   16  A    between atoms: _37  and  _38
REMARK   17  A    between atoms: _38  and  _39
REMARK   18  A    between atoms: _39  and  _40
REMARK   19  A    between atoms: _40  and  _41
REMARK   20  A    between atoms: _45  and  _47
REMARK   21  A    between atoms: _47  and  _48
REMARK   22  A    between atoms: _47  and  _50
REMARK   23  A    between atoms: _50  and  _51
REMARK   24  A    between atoms: _55  and  MN_513
REMARK   25  A    between atoms: _56  and  _58
REMARK   26  A    between atoms: _58  and  _59
REMARK   27  A    between atoms: _58  and  _61
REMARK   28  A    between atoms: _61  and  _62
REMARK   29  A    between atoms: _66  and  MN_513
REMARK   30  A    between atoms: _67  and  _69
REMARK   31  A    between atoms: _69  and  _70
REMARK   32  A    between atoms: _69  and  _72
REMARK   33  A    between atoms: _72  and  _73
REMARK   34  A    between atoms: _76  and  _78
REMARK   35  A    between atoms: _78  and  _79
REMARK   36  A    between atoms: _82  and  _84
REMARK   37  A    between atoms: _84  and  _85
REMARK   38  A    between atoms: _84  and  _87
REMARK   39  A    between atoms: _87  and  _88
REMARK   40  A    between atoms: _94  and  _96
REMARK   41  A    between atoms: _96  and  _97
REMARK   42  A    between atoms: _96  and  _99
REMARK   43  A    between atoms: _99  and  _100
REMARK   44  A    between atoms: _102  and  _104
REMARK   45  A    between atoms: _104  and  _105
REMARK   46  A    between atoms: _104  and  _107
REMARK   47  A    between atoms: _107  and  _108
REMARK   48  A    between atoms: _110  and  _112
REMARK   49  A    between atoms: _112  and  _113
REMARK   50  A    between atoms: _112  and  _115
REMARK   51  A    between atoms: _115  and  _116
REMARK   52  A    between atoms: _126  and  _128
REMARK   53  A    between atoms: _128  and  _129
REMARK   54  A    between atoms: _128  and  _131
REMARK   55  A    between atoms: _131  and  _132
REMARK   56  A    between atoms: _135  and  _137
REMARK   57  A    between atoms: _137  and  _138
REMARK   58  A    between atoms: _137  and  _140
REMARK   59  A    between atoms: _140  and  _141
REMARK   60  A    between atoms: _141  and  _142
REMARK   61  A    between atoms: _142  and  _143
REMARK   62  A    between atoms: _152  and  _154
REMARK   63  A    between atoms: _154  and  _155
REMARK   64  A    between atoms: _158  and  _160
REMARK   65  A    between atoms: _160  and  _161
REMARK   66  A    between atoms: _160  and  _163
REMARK   67  A    between atoms: _163  and  _164
REMARK   68  A    between atoms: _164  and  _165
REMARK   69  A    between atoms: _165  and  _166
REMARK   70  A    between atoms: _166  and  _167
REMARK   71  A    between atoms: _171  and  _173
REMARK   72  A    between atoms: _173  and  _174
REMARK   73  A    between atoms: _173  and  _176
REMARK   74  A    between atoms: _176  and  _177
REMARK   75  A    between atoms: _177  and  _178
REMARK   76  A    between atoms: _178  and  _179
REMARK   77  A    between atoms: _179  and  _180
REMARK   78  A    between atoms: _184  and  _186
REMARK   79  A    between atoms: _186  and  _187
REMARK   80  A    between atoms: _190  and  _192
REMARK   81  A    between atoms: _192  and  _193
REMARK   82  A    between atoms: _192  and  _195
REMARK   83  A    between atoms: _195  and  _196
REMARK   84  A    between atoms: _206  and  _208
REMARK   85  A    between atoms: _208  and  _209
REMARK   86  A    between atoms: _208  and  _211
REMARK   87  A    between atoms: _211  and  _212
REMARK   88  A    between atoms: _215  and  _217
REMARK   89  A    between atoms: _217  and  _218
REMARK   90  A    between atoms: _217  and  _220
REMARK   91  A    between atoms: _220  and  _221
REMARK   92  A    between atoms: _226  and  _228
REMARK   93  A    between atoms: _228  and  _229
REMARK   94  A    between atoms: _228  and  _231
REMARK   95  A    between atoms: _231  and  _232
REMARK   96  A    between atoms: _234  and  _236
REMARK   97  A    between atoms: _236  and  _237
REMARK   98  A    between atoms: _236  and  _239
REMARK   99  A    between atoms: _242  and  _244
REMARK  100  A    between atoms: _244  and  _245
REMARK  101  A    between atoms: _248  and  _250
REMARK  102  A    between atoms: _250  and  _251
REMARK  103  A    between atoms: _253  and  _255
REMARK  104  A    between atoms: _255  and  _256
REMARK  105  A    between atoms: _255  and  _258
REMARK  106  A    between atoms: _258  and  _259
REMARK  107  A    between atoms: _263  and  MN_513
REMARK  108  A    between atoms: _265  and  _266
REMARK  109  A    between atoms: _271  and  _273
REMARK  110  A    between atoms: _273  and  _274
REMARK  111  A    between atoms: _273  and  _276
REMARK  112  A    between atoms: _276  and  _277
REMARK  113  A    between atoms: _277  and  _278
REMARK  114  A    between atoms: _283  and  _285
REMARK  115  A    between atoms: _285  and  _286
REMARK  116  A    between atoms: _285  and  _288
REMARK  117  A    between atoms: _288  and  _289
REMARK  118  A    between atoms: _289  and  _290
REMARK  119  A    between atoms: _290  and  _291
REMARK  120  A    between atoms: _300  and  _302
REMARK  121  A    between atoms: _302  and  _303
REMARK  122  A    between atoms: _302  and  _305
REMARK  123  A    between atoms: _305  and  _306
REMARK  124  A    between atoms: _306  and  _307
REMARK  125  A    between atoms: _307  and  _308
REMARK  126  A    between atoms: _317  and  _319
REMARK  127  A    between atoms: _319  and  _320
REMARK  128  A    between atoms: _319  and  _322
REMARK  129  A    between atoms: _322  and  _323
REMARK  130  A    between atoms: _328  and  _329
REMARK  131  A    between atoms: _331  and  _333
REMARK  132  A    between atoms: _333  and  _334
REMARK  133  A    between atoms: _333  and  _336
REMARK  134  A    between atoms: _336  and  _337
REMARK  135  A    between atoms: _337  and  _338
REMARK  136  A    between atoms: _338  and  _340
REMARK  137  A    between atoms: _340  and  MG_514
REMARK  138  A    between atoms: _341  and  _343
REMARK  139  A    between atoms: _343  and  _344
REMARK  140  A    between atoms: _343  and  _346
REMARK  141  A    between atoms: _346  and  _347
REMARK  142  A    between atoms: _353  and  _355
REMARK  143  A    between atoms: _355  and  _356
REMARK  144  A    between atoms: _355  and  _358
REMARK  145  A    between atoms: _358  and  _359
REMARK  146  A    between atoms: _364  and  _365
REMARK  147  A    between atoms: _367  and  _369
REMARK  148  A    between atoms: _369  and  _370
REMARK  149  A    between atoms: _373  and  _375
REMARK  150  A    between atoms: _375  and  _376
REMARK  151  A    between atoms: _375  and  _378
REMARK  152  A    between atoms: _381  and  _383
REMARK  153  A    between atoms: _393  and  _396
REMARK  154  A    between atoms: _396  and  _397
REMARK  155  A    between atoms: _404  and  _405
REMARK  156  A    between atoms: _412  and  _414
REMARK  157  A    between atoms: _414  and  _415
REMARK  158  A    between atoms: _414  and  _417
REMARK  159  A    between atoms: _420  and  _422
REMARK  160  A    between atoms: _422  and  _423
REMARK  161  A    between atoms: _422  and  _425
REMARK  162  A    between atoms: _428  and  _429
REMARK  163  A    between atoms: _434  and  _436
REMARK  164  A    between atoms: _436  and  _437
REMARK  165  A    between atoms: _436  and  _439
REMARK  166  A    between atoms: _442  and  _444
REMARK  167  A    between atoms: _444  and  _445
REMARK  168  A    between atoms: _444  and  _447
REMARK  169  A    between atoms: _447  and  _448
REMARK  170  A    between atoms: _451  and  _453
REMARK  171  A    between atoms: _453  and  _454
REMARK  172  A    between atoms: _453  and  _456
REMARK  173  A    between atoms: _456  and  _457
REMARK  174  A    between atoms: _457  and  _458
REMARK  175  A    between atoms: _461  and  _463
REMARK  176  A    between atoms: _463  and  _464
REMARK  177  A    between atoms: _463  and  _466
REMARK  178  A    between atoms: _466  and  _467
REMARK  179  A    between atoms: _470  and  _471
REMARK  180  A    between atoms: _476  and  _478
REMARK  181  A    between atoms: _478  and  _479
REMARK  182  A    between atoms: _478  and  _481
REMARK  183  A    between atoms: _481  and  _482
REMARK  184  A    between atoms: _492  and  _494
REMARK  185  A    between atoms: _494  and  _495
REMARK  186  A    between atoms: _494  and  _497
REMARK  187  A    between atoms: _497  and  _498
REMARK  188  A    between atoms: _498  and  _499
REMARK  189  A    between atoms: _501  and  _503
REMARK  190  A    between atoms: _503  and  _504
REMARK  191  A    between atoms: _503  and  _506
REMARK  192  A    between atoms: _506  and  _507
REMARK  193  A    between atoms: _507  and  _508
REMARK                            x       y       z     vdW  Elec       q    Type
REMARK                         _______ _______ _______ _____ _____    ______ ____
ROOT
ATOM      1  CG  TYR A   1       7.771  17.597  15.277  0.00  0.00    -0.020 A 
ATOM      2  CD2 TYR A   1       7.796  18.952  15.582  0.00  0.00    -0.001 A 
ATOM      3  CE2 TYR A   1       8.983  19.666  15.582  0.00  0.00    +0.036 A 
ATOM      4  CZ  TYR A   1      10.166  19.024  15.278  0.00  0.00    +0.134 A 
ATOM      5  CE1 TYR A   1      10.173  17.678  14.975  0.00  0.00    +0.036 A 
ATOM      6  CD1 TYR A   1       8.982  16.978  14.978  0.00  0.00    -0.001 A 
ENDROOT
BRANCH   4   7
ATOM      7  OH  TYR A   1      11.352  19.723  15.274  0.00  0.00    -0.506 OA
ATOM      8  HH  TYR A   1      11.177  20.668  15.510  0.00  0.00    +0.292 HD
ENDBRANCH   4   7
BRANCH   1   9
ATOM      9  CB  TYR A   1       6.497  16.792  15.274  0.00  0.00    +0.051 C 
BRANCH   9  10
ATOM     10  CA  TYR A   1       5.419  17.218  14.274  0.00  0.00    +0.137 C 
BRANCH  10  11
ATOM     11  N   TYR A   1       4.188  16.483  14.562  0.00  0.00    -0.239 NA
ATOM     12  H   TYR A   1       3.877  15.695  13.958  0.00  0.00    +0.142 HD
ENDBRANCH  10  11
BRANCH  10  13
ATOM     13  C   TYR A   1       5.913  16.991  12.858  0.00  0.00    +0.224 C 
ATOM     14  O   TYR A   1       5.667  15.947  12.267  0.00  0.00    -0.287 OA
ENDBRANCH  10  13
ENDBRANCH   9  10
ENDBRANCH   1   9
TORSDOF 5
REMARK  Name = ../refined-set-2016/1q54/1q54_pocket.pdb
REMARK  193 active torsions:
REMARK  status: ('A' for Active; 'I' for Inactive)
REMARK    1  A    between atoms: _1  and  _5
REMARK    2  A    between atoms: _5  and  _6
REMARK    3  A    between atoms: _5  and  _8
REMARK    4  A    between atoms: _8  and  _9
REMARK    5  A    between atoms: _9  and  _10
REMARK    6  A    between atoms: _13  and  _15
REMARK    7  A    between atoms: _15  and  _16
REMARK    8  A    between atoms: _15  and  _18
REMARK    9  A    between atoms: _18  and  _19
REMARK   10  A    between atoms: _24  and  _26
REMARK   11  A    between atoms: _26  and  _27
REMARK   12  A    between atoms: _26  and  _29
REMARK   13  A    between atoms: _32  and  _34
REMARK   14  A    between atoms: _34  and  _35
REMARK   15  A    between atoms: _34  and  _37
REMARK   16  A    between atoms: _37  and  _38
REMARK   17  A    between atoms: _38  and  _39
REMARK   18  A    between atoms: _39  and  _40
REMARK   19  A    between atoms: _40  and  _41
REMARK   20  A    between atoms: _45  and  _47
REMARK   21  A    between atoms: _47  and  _48
REMARK   22  A    between atoms: _47  and  _50
REMARK   23  A    between atoms: _50  and  _51
REMARK   24  A    between atoms: _55  and  MN_513
REMARK   25  A    between atoms: _56  and  _58
REMARK   26  A    between atoms: _58  and  _59
REMARK   27  A    between atoms: _58  and  _61
REMARK   28  A    between atoms: _61  and  _62
REMARK   29  A    between atoms: _66  and  MN_513
REMARK   30  A    between atoms: _67  and  _69
REMARK   31  A    between atoms: _69  and  _70
REMARK   32  A    between atoms: _69  and  _72
REMARK   33  A    between atoms: _72  and  _73
REMARK   34  A    between atoms: _76  and  _78
REMARK   35  A    between atoms: _78  and  _79
REMARK   36  A    between atoms: _82  and  _84
REMARK   37  A    between atoms: _84  and  _85
REMARK   38  A    between atoms: _84  and  _87
REMARK   39  A    between atoms: _87  and  _88
REMARK   40  A    between atoms: _94  and  _96
REMARK   41  A    between atoms: _96  and  _97
REMARK   42  A    between atoms: _96  and  _99
REMARK   43  A    between atoms: _99  and  _100
REMARK   44  A    between atoms: _102  and  _104
REMARK   45  A    between atoms: _104  and  _105
REMARK   46  A    between atoms: _104  and  _107
REMARK   47  A    between atoms: _107  and  _108
REMARK   48  A    between atoms: _110  and  _112
REMARK   49  A    between atoms: _112  and  _113
REMARK   50  A    between atoms: _112  and  _115
REMARK   51  A    between atoms: _115  and  _116
REMARK   52  A    between atoms: _126  and  _128
REMARK   53  A    between atoms: _128  and  _129
REMARK   54  A    between atoms: _128  and  _131
REMARK   55  A    between atoms: _131  and  _132
REMARK   56  A    between atoms: _135  and  _137
REMARK   57  A    between atoms: _137  and  _138
REMARK   58  A    between atoms: _137  and  _140
REMARK   59  A    between atoms: _140  and  _141
REMARK   60  A    between atoms: _141  and  _142
REMARK   61  A    between atoms: _142  and  _143
REMARK   62  A    between atoms: _152  and  _154
REMARK   63  A    between atoms: _154  and  _155
REMARK   64  A    between atoms: _158  and  _160
REMARK   65  A    between atoms: _160  and  _161
REMARK   66  A    between atoms: _160  and  _163
REMARK   67  A    between atoms: _163  and  _164
REMARK   68  A    between atoms: _164  and  _165
REMARK   69  A    between atoms: _165  and  _166
REMARK   70  A    between atoms: _166  and  _167
REMARK   71  A    between atoms: _171  and  _173
REMARK   72  A    between atoms: _173  and  _174
REMARK   73  A    between atoms: _173  and  _176
REMARK   74  A    between atoms: _176  and  _177
REMARK   75  A    between atoms: _177  and  _178
REMARK   76  A    between atoms: _178  and  _179
REMARK   77  A    between atoms: _179  and  _180
REMARK   78  A    between atoms: _184  and  _186
REMARK   79  A    between atoms: _186  and  _187
REMARK   80  A    between atoms: _190  and  _192
REMARK   81  A    between atoms: _192  and  _193
REMARK   82  A    between atoms: _192  and  _195
REMARK   83  A    between atoms: _195  and  _196
REMARK   84  A    between atoms: _206  and  _208
REMARK   85  A    between atoms: _208  and  _209
REMARK   86  A    between atoms: _208  and  _211
REMARK   87  A    between atoms: _211  and  _212
REMARK   88  A    between atoms: _215  and  _217
REMARK   89  A    between atoms: _217  and  _218
REMARK   90  A    between atoms: _217  and  _220
REMARK   91  A    between atoms: _220  and  _221
REMARK   92  A    between atoms: _226  and  _228
REMARK   93  A    between atoms: _228  and  _229
REMARK   94  A    between atoms: _228  and  _231
REMARK   95  A    between atoms: _231  and  _232
REMARK   96  A    between atoms: _234  and  _236
REMARK   97  A    between atoms: _236  and  _237
REMARK   98  A    between atoms: _236  and  _239
REMARK   99  A    between atoms: _242  and  _244
REMARK  100  A    between atoms: _244  and  _245
REMARK  101  A    between atoms: _248  and  _250
REMARK  102  A    between atoms: _250  and  _251
REMARK  103  A    between atoms: _253  and  _255
REMARK  104  A    between atoms: _255  and  _256
REMARK  105  A    between atoms: _255  and  _258
REMARK  106  A    between atoms: _258  and  _259
REMARK  107  A    between atoms: _263  and  MN_513
REMARK  108  A    between atoms: _265  and  _266
REMARK  109  A    between atoms: _271  and  _273
REMARK  110  A    between atoms: _273  and  _274
REMARK  111  A    between atoms: _273  and  _276
REMARK  112  A    between atoms: _276  and  _277
REMARK  113  A    between atoms: _277  and  _278
REMARK  114  A    between atoms: _283  and  _285
REMARK  115  A    between atoms: _285  and  _286
REMARK  116  A    between atoms: _285  and  _288
REMARK  117  A    between atoms: _288  and  _289
REMARK  118  A    between atoms: _289  and  _290
REMARK  119  A    between atoms: _290  and  _291
REMARK  120  A    between atoms: _300  and  _302
REMARK  121  A    between atoms: _302  and  _303
REMARK  122  A    between atoms: _302  and  _305
REMARK  123  A    between atoms: _305  and  _306
REMARK  124  A    between atoms: _306  and  _307
REMARK  125  A    between atoms: _307  and  _308
REMARK  126  A    between atoms: _317  and  _319
REMARK  127  A    between atoms: _319  and  _320
REMARK  128  A    between atoms: _319  and  _322
REMARK  129  A    between atoms: _322  and  _323
REMARK  130  A    between atoms: _328  and  _329
REMARK  131  A    between atoms: _331  and  _333
REMARK  132  A    between atoms: _333  and  _334
REMARK  133  A    between atoms: _333  and  _336
REMARK  134  A    between atoms: _336  and  _337
REMARK  135  A    between atoms: _337  and  _338
REMARK  136  A    between atoms: _338  and  _340
REMARK  137  A    between atoms: _340  and  MG_514
REMARK  138  A    between atoms: _341  and  _343
REMARK  139  A    between atoms: _343  and  _344
REMARK  140  A    between atoms: _343  and  _346
REMARK  141  A    between atoms: _346  and  _347
REMARK  142  A    between atoms: _353  and  _355
REMARK  143  A    between atoms: _355  and  _356
REMARK  144  A    between atoms: _355  and  _358
REMARK  145  A    between atoms: _358  and  _359
REMARK  146  A    between atoms: _364  and  _365
REMARK  147  A    between atoms: _367  and  _369
REMARK  148  A    between atoms: _369  and  _370
REMARK  149  A    between atoms: _373  and  _375
REMARK  150  A    between atoms: _375  and  _376
REMARK  151  A    between atoms: _375  and  _378
REMARK  152  A    between atoms: _381  and  _383
REMARK  153  A    between atoms: _393  and  _396
REMARK  154  A    between atoms: _396  and  _397
REMARK  155  A    between atoms: _404  and  _405
REMARK  156  A    between atoms: _412  and  _414
REMARK  157  A    between atoms: _414  and  _415
REMARK  158  A    between atoms: _414  and  _417
REMARK  159  A    between atoms: _420  and  _422
REMARK  160  A    between atoms: _422  and  _423
REMARK  161  A    between atoms: _422  and  _425
REMARK  162  A    between atoms: _428  and  _429
REMARK  163  A    between atoms: _434  and  _436
REMARK  164  A    between atoms: _436  and  _437
REMARK  165  A    between atoms: _436  and  _439
REMARK  166  A    between atoms: _442  and  _444
REMARK  167  A    between atoms: _444  and  _445
REMARK  168  A    between atoms: _444  and  _447
REMARK  169  A    between atoms: _447  and  _448
REMARK  170  A    between atoms: _451  and  _453
REMARK  171  A    between atoms: _453  and  _454
REMARK  172  A    between atoms: _453  and  _456
REMARK  173  A    between atoms: _456  and  _457
REMARK  174  A    between atoms: _457  and  _458
REMARK  175  A    between atoms: _461  and  _463
REMARK  176  A    between atoms: _463  and  _464
REMARK  177  A    between atoms: _463  and  _466
REMARK  178  A    between atoms: _466  and  _467
REMARK  179  A    between atoms: _470  and  _471
REMARK  180  A    between atoms: _476  and  _478
REMARK  181  A    between atoms: _478  and  _479
REMARK  182  A    between atoms: _478  and  _481
REMARK  183  A    between atoms: _481  and  _482
REMARK  184  A    between atoms: _492  and  _494
REMARK  185  A    between atoms: _494  and  _495
REMARK  186  A    between atoms: _494  and  _497
REMARK  187  A    between atoms: _497  and  _498
REMARK  188  A    between atoms: _498  and  _499
REMARK  189  A    between atoms: _501  and  _503
REMARK  190  A    between atoms: _503  and  _504
REMARK  191  A    between atoms: _503  and  _506
REMARK  192  A    between atoms: _506  and  _507
REMARK  193  A    between atoms: _507  and  _508
REMARK                            x       y       z     vdW  Elec       q    Type
REMARK                         _______ _______ _______ _____ _____    ______ ____
ROOT
ATOM      1  CA  ALA A   1      11.061  18.020  10.646  0.00  0.00    +0.133 C 
ATOM      2  CB  ALA A   1      11.683  17.593  11.959  0.00  0.00    +0.027 C 
ENDROOT
BRANCH   1   3
ATOM      3  N   ALA A   1       9.672  17.549  10.570  0.00  0.00    -0.239 NA
ATOM      4  H   ALA A   1       9.423  16.687  10.045  0.00  0.00    +0.142 HD
ENDBRANCH   1   3
BRANCH   1   5
ATOM      5  C   ALA A   1      11.823  17.516   9.425  0.00  0.00    +0.224 C 
ATOM      6  O   ALA A   1      11.316  16.630   8.739  0.00  0.00    -0.287 OA
ENDBRANCH   1   5
TORSDOF 2
REMARK  Name = ../refined-set-2016/1q54/1q54_pocket.pdb
REMARK  193 active torsions:
REMARK  status: ('A' for Active; 'I' for Inactive)
REMARK    1  A    between atoms: _1  and  _5
REMARK    2  A    between atoms: _5  and  _6
REMARK    3  A    between atoms: _5  and  _8
REMARK    4  A    between atoms: _8  and  _9
REMARK    5  A    between atoms: _9  and  _10
REMARK    6  A    between atoms: _13  and  _15
REMARK    7  A    between atoms: _15  and  _16
REMARK    8  A    between atoms: _15  and  _18
REMARK    9  A    between atoms: _18  and  _19
REMARK   10  A    between atoms: _24  and  _26
REMARK   11  A    between atoms: _26  and  _27
REMARK   12  A    between atoms: _26  and  _29
REMARK   13  A    between atoms: _32  and  _34
REMARK   14  A    between atoms: _34  and  _35
REMARK   15  A    between atoms: _34  and  _37
REMARK   16  A    between atoms: _37  and  _38
REMARK   17  A    between atoms: _38  and  _39
REMARK   18  A    between atoms: _39  and  _40
REMARK   19  A    between atoms: _40  and  _41
REMARK   20  A    between atoms: _45  and  _47
REMARK   21  A    between atoms: _47  and  _48
REMARK   22  A    between atoms: _47  and  _50
REMARK   23  A    between atoms: _50  and  _51
REMARK   24  A    between atoms: _55  and  MN_513
REMARK   25  A    between atoms: _56  and  _58
REMARK   26  A    between atoms: _58  and  _59
REMARK   27  A    between atoms: _58  and  _61
REMARK   28  A    between atoms: _61  and  _62
REMARK   29  A    between atoms: _66  and  MN_513
REMARK   30  A    between atoms: _67  and  _69
REMARK   31  A    between atoms: _69  and  _70
REMARK   32  A    between atoms: _69  and  _72
REMARK   33  A    between atoms: _72  and  _73
REMARK   34  A    between atoms: _76  and  _78
REMARK   35  A    between atoms: _78  and  _79
REMARK   36  A    between atoms: _82  and  _84
REMARK   37  A    between atoms: _84  and  _85
REMARK   38  A    between atoms: _84  and  _87
REMARK   39  A    between atoms: _87  and  _88
REMARK   40  A    between atoms: _94  and  _96
REMARK   41  A    between atoms: _96  and  _97
REMARK   42  A    between atoms: _96  and  _99
REMARK   43  A    between atoms: _99  and  _100
REMARK   44  A    between atoms: _102  and  _104
REMARK   45  A    between atoms: _104  and  _105
REMARK   46  A    between atoms: _104  and  _107
REMARK   47  A    between atoms: _107  and  _108
REMARK   48  A    between atoms: _110  and  _112
REMARK   49  A    between atoms: _112  and  _113
REMARK   50  A    between atoms: _112  and  _115
REMARK   51  A    between atoms: _115  and  _116
REMARK   52  A    between atoms: _126  and  _128
REMARK   53  A    between atoms: _128  and  _129
REMARK   54  A    between atoms: _128  and  _131
REMARK   55  A    between atoms: _131  and  _132
REMARK   56  A    between atoms: _135  and  _137
REMARK   57  A    between atoms: _137  and  _138
REMARK   58  A    between atoms: _137  and  _140
REMARK   59  A    between atoms: _140  and  _141
REMARK   60  A    between atoms: _141  and  _142
REMARK   61  A    between atoms: _142  and  _143
REMARK   62  A    between atoms: _152  and  _154
REMARK   63  A    between atoms: _154  and  _155
REMARK   64  A    between atoms: _158  and  _160
REMARK   65  A    between atoms: _160  and  _161
REMARK   66  A    between atoms: _160  and  _163
REMARK   67  A    between atoms: _163  and  _164
REMARK   68  A    between atoms: _164  and  _165
REMARK   69  A    between atoms: _165  and  _166
REMARK   70  A    between atoms: _166  and  _167
REMARK   71  A    between atoms: _171  and  _173
REMARK   72  A    between atoms: _173  and  _174
REMARK   73  A    between atoms: _173  and  _176
REMARK   74  A    between atoms: _176  and  _177
REMARK   75  A    between atoms: _177  and  _178
REMARK   76  A    between atoms: _178  and  _179
REMARK   77  A    between atoms: _179  and  _180
REMARK   78  A    between atoms: _184  and  _186
REMARK   79  A    between atoms: _186  and  _187
REMARK   80  A    between atoms: _190  and  _192
REMARK   81  A    between atoms: _192  and  _193
REMARK   82  A    between atoms: _192  and  _195
REMARK   83  A    between atoms: _195  and  _196
REMARK   84  A    between atoms: _206  and  _208
REMARK   85  A    between atoms: _208  and  _209
REMARK   86  A    between atoms: _208  and  _211
REMARK   87  A    between atoms: _211  and  _212
REMARK   88  A    between atoms: _215  and  _217
REMARK   89  A    between atoms: _217  and  _218
REMARK   90  A    between atoms: _217  and  _220
REMARK   91  A    between atoms: _220  and  _221
REMARK   92  A    between atoms: _226  and  _228
REMARK   93  A    between atoms: _228  and  _229
REMARK   94  A    between atoms: _228  and  _231
REMARK   95  A    between atoms: _231  and  _232
REMARK   96  A    between atoms: _234  and  _236
REMARK   97  A    between atoms: _236  and  _237
REMARK   98  A    between atoms: _236  and  _239
REMARK   99  A    between atoms: _242  and  _244
REMARK  100  A    between atoms: _244  and  _245
REMARK  101  A    between atoms: _248  and  _250
REMARK  102  A    between atoms: _250  and  _251
REMARK  103  A    between atoms: _253  and  _255
REMARK  104  A    between atoms: _255  and  _256
REMARK  105  A    between atoms: _255  and  _258
REMARK  106  A    between atoms: _258  and  _259
REMARK  107  A    between atoms: _263  and  MN_513
REMARK  108  A    between atoms: _265  and  _266
REMARK  109  A    between atoms: _271  and  _273
REMARK  110  A    between atoms: _273  and  _274
REMARK  111  A    between atoms: _273  and  _276
REMARK  112  A    between atoms: _276  and  _277
REMARK  113  A    between atoms: _277  and  _278
REMARK  114  A    between atoms: _283  and  _285
REMARK  115  A    between atoms: _285  and  _286
REMARK  116  A    between atoms: _285  and  _288
REMARK  117  A    between atoms: _288  and  _289
REMARK  118  A    between atoms: _289  and  _290
REMARK  119  A    between atoms: _290  and  _291
REMARK  120  A    between atoms: _300  and  _302
REMARK  121  A    between atoms: _302  and  _303
REMARK  122  A    between atoms: _302  and  _305
REMARK  123  A    between atoms: _305  and  _306
REMARK  124  A    between atoms: _306  and  _307
REMARK  125  A    between atoms: _307  and  _308
REMARK  126  A    between atoms: _317  and  _319
REMARK  127  A    between atoms: _319  and  _320
REMARK  128  A    between atoms: _319  and  _322
REMARK  129  A    between atoms: _322  and  _323
REMARK  130  A    between atoms: _328  and  _329
REMARK  131  A    between atoms: _331  and  _333
REMARK  132  A    between atoms: _333  and  _334
REMARK  133  A    between atoms: _333  and  _336
REMARK  134  A    between atoms: _336  and  _337
REMARK  135  A    between atoms: _337  and  _338
REMARK  136  A    between atoms: _338  and  _340
REMARK  137  A    between atoms: _340  and  MG_514
REMARK  138  A    between atoms: _341  and  _343
REMARK  139  A    between atoms: _343  and  _344
REMARK  140  A    between atoms: _343  and  _346
REMARK  141  A    between atoms: _346  and  _347
REMARK  142  A    between atoms: _353  and  _355
REMARK  143  A    between atoms: _355  and  _356
REMARK  144  A    between atoms: _355  and  _358
REMARK  145  A    between atoms: _358  and  _359
REMARK  146  A    between atoms: _364  and  _365
REMARK  147  A    between atoms: _367  and  _369
REMARK  148  A    between atoms: _369  and  _370
REMARK  149  A    between atoms: _373  and  _375
REMARK  150  A    between atoms: _375  and  _376
REMARK  151  A    between atoms: _375  and  _378
REMARK  152  A    between atoms: _381  and  _383
REMARK  153  A    between atoms: _393  and  _396
REMARK  154  A    between atoms: _396  and  _397
REMARK  155  A    between atoms: _404  and  _405
REMARK  156  A    between atoms: _412  and  _414
REMARK  157  A    between atoms: _414  and  _415
REMARK  158  A    between atoms: _414  and  _417
REMARK  159  A    between atoms: _420  and  _422
REMARK  160  A    between atoms: _422  and  _423
REMARK  161  A    between atoms: _422  and  _425
REMARK  162  A    between atoms: _428  and  _429
REMARK  163  A    between atoms: _434  and  _436
REMARK  164  A    between atoms: _436  and  _437
REMARK  165  A    between atoms: _436  and  _439
REMARK  166  A    between atoms: _442  and  _444
REMARK  167  A    between atoms: _444  and  _445
REMARK  168  A    between atoms: _444  and  _447
REMARK  169  A    between atoms: _447  and  _448
REMARK  170  A    between atoms: _451  and  _453
REMARK  171  A    between atoms: _453  and  _454
REMARK  172  A    between atoms: _453  and  _456
REMARK  173  A    between atoms: _456  and  _457
REMARK  174  A    between atoms: _457  and  _458
REMARK  175  A    between atoms: _461  and  _463
REMARK  176  A    between atoms: _463  and  _464
REMARK  177  A    between atoms: _463  and  _466
REMARK  178  A    between atoms: _466  and  _467
REMARK  179  A    between atoms: _470  and  _471
REMARK  180  A    between atoms: _476  and  _478
REMARK  181  A    between atoms: _478  and  _479
REMARK  182  A    between atoms: _478  and  _481
REMARK  183  A    between atoms: _481  and  _482
REMARK  184  A    between atoms: _492  and  _494
REMARK  185  A    between atoms: _494  and  _495
REMARK  186  A    between atoms: _494  and  _497
REMARK  187  A    between atoms: _497  and  _498
REMARK  188  A    between atoms: _498  and  _499
REMARK  189  A    between atoms: _501  and  _503
REMARK  190  A    between atoms: _503  and  _504
REMARK  191  A    between atoms: _503  and  _506
REMARK  192  A    between atoms: _506  and  _507
REMARK  193  A    between atoms: _507  and  _508
REMARK                            x       y       z     vdW  Elec       q    Type
REMARK                         _______ _______ _______ _____ _____    ______ ____
ROOT
ATOM      1  C   ASP A   1      18.306  -2.191  10.870  0.00  0.00    +0.239 C 
ATOM      2  N   GLU A   2      18.000  -2.112  12.163  0.00  0.00    -0.298 N 
ATOM      3  H   GLU A   2      18.309  -2.867  12.808  0.00  0.00    +0.150 HD
ATOM      4  O   ASP A   1      18.012  -1.290  10.072  0.00  0.00    -0.274 OA
ENDROOT
BRANCH   1   5
ATOM      5  CA  ASP A   1      19.032  -3.440  10.383  0.00  0.00    +0.156 C 
BRANCH   5   6
ATOM      6  N   ASP A   1      19.561  -4.235  11.497  0.00  0.00    -0.238 NA
ATOM      7  H   ASP A   1      19.122  -5.135  11.779  0.00  0.00    +0.142 HD
ENDBRANCH   5   6
BRANCH   5   8
ATOM      8  CB  ASP A   1      18.087  -4.296   9.539  0.00  0.00    +0.140 C 
BRANCH   8   9
ATOM      9  CG  ASP A   1      18.869  -5.217   8.617  0.00  0.00    +0.367 C 
ATOM     10  OD2 ASP A   1      18.423  -6.359   8.393  0.00  0.00    -0.246 OA
ATOM     11  OD1 ASP A   1      19.930  -4.794   8.111  0.00  0.00    -0.246 OA
ENDBRANCH   8   9
ENDBRANCH   5   8
ENDBRANCH   1   5
BRANCH   2  12
ATOM     12  CA  GLU A   2      17.240  -0.987  12.691  0.00  0.00    +0.137 C 
BRANCH  12  13
ATOM     13  C   GLU A   2      17.997  -0.178  13.740  0.00  0.00    +0.227 C 
ATOM     14  O   GLU A   2      17.850   1.040  13.792  0.00  0.00    -0.286 OA
ENDBRANCH  12  13
BRANCH  12  15
ATOM     15  CB  GLU A   2      15.930  -1.483  13.328  0.00  0.00    +0.039 C 
BRANCH  15  16
ATOM     16  CG  GLU A   2      15.018  -2.171  12.334  0.00  0.00    +0.116 C 
BRANCH  16  17
ATOM     17  CD  GLU A   2      14.283  -1.213  11.420  0.00  0.00    +0.365 C 
ATOM     18  OE2 GLU A   2      14.070  -0.043  11.769  0.00  0.00    -0.246 OA
ATOM     19  OE1 GLU A   2      13.901  -1.652  10.314  0.00  0.00    -0.246 OA
ENDBRANCH  16  17
ENDBRANCH  15  16
ENDBRANCH  12  15
ENDBRANCH   2  12
TORSDOF 9
REMARK  Name = ../refined-set-2016/1q54/1q54_pocket.pdb
REMARK  193 active torsions:
REMARK  status: ('A' for Active; 'I' for Inactive)
REMARK    1  A    between atoms: _1  and  _5
REMARK    2  A    between atoms: _5  and  _6
REMARK    3  A    between atoms: _5  and  _8
REMARK    4  A    between atoms: _8  and  _9
REMARK    5  A    between atoms: _9  and  _10
REMARK    6  A    between atoms: _13  and  _15
REMARK    7  A    between atoms: _15  and  _16
REMARK    8  A    between atoms: _15  and  _18
REMARK    9  A    between atoms: _18  and  _19
REMARK   10  A    between atoms: _24  and  _26
REMARK   11  A    between atoms: _26  and  _27
REMARK   12  A    between atoms: _26  and  _29
REMARK   13  A    between atoms: _32  and  _34
REMARK   14  A    between atoms: _34  and  _35
REMARK   15  A    between atoms: _34  and  _37
REMARK   16  A    between atoms: _37  and  _38
REMARK   17  A    between atoms: _38  and  _39
REMARK   18  A    between atoms: _39  and  _40
REMARK   19  A    between atoms: _40  and  _41
REMARK   20  A    between atoms: _45  and  _47
REMARK   21  A    between atoms: _47  and  _48
REMARK   22  A    between atoms: _47  and  _50
REMARK   23  A    between atoms: _50  and  _51
REMARK   24  A    between atoms: _55  and  MN_513
REMARK   25  A    between atoms: _56  and  _58
REMARK   26  A    between atoms: _58  and  _59
REMARK   27  A    between atoms: _58  and  _61
REMARK   28  A    between atoms: _61  and  _62
REMARK   29  A    between atoms: _66  and  MN_513
REMARK   30  A    between atoms: _67  and  _69
REMARK   31  A    between atoms: _69  and  _70
REMARK   32  A    between atoms: _69  and  _72
REMARK   33  A    between atoms: _72  and  _73
REMARK   34  A    between atoms: _76  and  _78
REMARK   35  A    between atoms: _78  and  _79
REMARK   36  A    between atoms: _82  and  _84
REMARK   37  A    between atoms: _84  and  _85
REMARK   38  A    between atoms: _84  and  _87
REMARK   39  A    between atoms: _87  and  _88
REMARK   40  A    between atoms: _94  and  _96
REMARK   41  A    between atoms: _96  and  _97
REMARK   42  A    between atoms: _96  and  _99
REMARK   43  A    between atoms: _99  and  _100
REMARK   44  A    between atoms: _102  and  _104
REMARK   45  A    between atoms: _104  and  _105
REMARK   46  A    between atoms: _104  and  _107
REMARK   47  A    between atoms: _107  and  _108
REMARK   48  A    between atoms: _110  and  _112
REMARK   49  A    between atoms: _112  and  _113
REMARK   50  A    between atoms: _112  and  _115
REMARK   51  A    between atoms: _115  and  _116
REMARK   52  A    between atoms: _126  and  _128
REMARK   53  A    between atoms: _128  and  _129
REMARK   54  A    between atoms: _128  and  _131
REMARK   55  A    between atoms: _131  and  _132
REMARK   56  A    between atoms: _135  and  _137
REMARK   57  A    between atoms: _137  and  _138
REMARK   58  A    between atoms: _137  and  _140
REMARK   59  A    between atoms: _140  and  _141
REMARK   60  A    between atoms: _141  and  _142
REMARK   61  A    between atoms: _142  and  _143
REMARK   62  A    between atoms: _152  and  _154
REMARK   63  A    between atoms: _154  and  _155
REMARK   64  A    between atoms: _158  and  _160
REMARK   65  A    between atoms: _160  and  _161
REMARK   66  A    between atoms: _160  and  _163
REMARK   67  A    between atoms: _163  and  _164
REMARK   68  A    between atoms: _164  and  _165
REMARK   69  A    between atoms: _165  and  _166
REMARK   70  A    between atoms: _166  and  _167
REMARK   71  A    between atoms: _171  and  _173
REMARK   72  A    between atoms: _173  and  _174
REMARK   73  A    between atoms: _173  and  _176
REMARK   74  A    between atoms: _176  and  _177
REMARK   75  A    between atoms: _177  and  _178
REMARK   76  A    between atoms: _178  and  _179
REMARK   77  A    between atoms: _179  and  _180
REMARK   78  A    between atoms: _184  and  _186
REMARK   79  A    between atoms: _186  and  _187
REMARK   80  A    between atoms: _190  and  _192
REMARK   81  A    between atoms: _192  and  _193
REMARK   82  A    between atoms: _192  and  _195
REMARK   83  A    between atoms: _195  and  _196
REMARK   84  A    between atoms: _206  and  _208
REMARK   85  A    between atoms: _208  and  _209
REMARK   86  A    between atoms: _208  and  _211
REMARK   87  A    between atoms: _211  and  _212
REMARK   88  A    between atoms: _215  and  _217
REMARK   89  A    between atoms: _217  and  _218
REMARK   90  A    between atoms: _217  and  _220
REMARK   91  A    between atoms: _220  and  _221
REMARK   92  A    between atoms: _226  and  _228
REMARK   93  A    between atoms: _228  and  _229
REMARK   94  A    between atoms: _228  and  _231
REMARK   95  A    between atoms: _231  and  _232
REMARK   96  A    between atoms: _234  and  _236
REMARK   97  A    between atoms: _236  and  _237
REMARK   98  A    between atoms: _236  and  _239
REMARK   99  A    between atoms: _242  and  _244
REMARK  100  A    between atoms: _244  and  _245
REMARK  101  A    between atoms: _248  and  _250
REMARK  102  A    between atoms: _250  and  _251
REMARK  103  A    between atoms: _253  and  _255
REMARK  104  A    between atoms: _255  and  _256
REMARK  105  A    between atoms: _255  and  _258
REMARK  106  A    between atoms: _258  and  _259
REMARK  107  A    between atoms: _263  and  MN_513
REMARK  108  A    between atoms: _265  and  _266
REMARK  109  A    between atoms: _271  and  _273
REMARK  110  A    between atoms: _273  and  _274
REMARK  111  A    between atoms: _273  and  _276
REMARK  112  A    between atoms: _276  and  _277
REMARK  113  A    between atoms: _277  and  _278
REMARK  114  A    between atoms: _283  and  _285
REMARK  115  A    between atoms: _285  and  _286
REMARK  116  A    between atoms: _285  and  _288
REMARK  117  A    between atoms: _288  and  _289
REMARK  118  A    between atoms: _289  and  _290
REMARK  119  A    between atoms: _290  and  _291
REMARK  120  A    between atoms: _300  and  _302
REMARK  121  A    between atoms: _302  and  _303
REMARK  122  A    between atoms: _302  and  _305
REMARK  123  A    between atoms: _305  and  _306
REMARK  124  A    between atoms: _306  and  _307
REMARK  125  A    between atoms: _307  and  _308
REMARK  126  A    between atoms: _317  and  _319
REMARK  127  A    between atoms: _319  and  _320
REMARK  128  A    between atoms: _319  and  _322
REMARK  129  A    between atoms: _322  and  _323
REMARK  130  A    between atoms: _328  and  _329
REMARK  131  A    between atoms: _331  and  _333
REMARK  132  A    between atoms: _333  and  _334
REMARK  133  A    between atoms: _333  and  _336
REMARK  134  A    between atoms: _336  and  _337
REMARK  135  A    between atoms: _337  and  _338
REMARK  136  A    between atoms: _338  and  _340
REMARK  137  A    between atoms: _340  and  MG_514
REMARK  138  A    between atoms: _341  and  _343
REMARK  139  A    between atoms: _343  and  _344
REMARK  140  A    between atoms: _343  and  _346
REMARK  141  A    between atoms: _346  and  _347
REMARK  142  A    between atoms: _353  and  _355
REMARK  143  A    between atoms: _355  and  _356
REMARK  144  A    between atoms: _355  and  _358
REMARK  145  A    between atoms: _358  and  _359
REMARK  146  A    between atoms: _364  and  _365
REMARK  147  A    between atoms: _367  and  _369
REMARK  148  A    between atoms: _369  and  _370
REMARK  149  A    between atoms: _373  and  _375
REMARK  150  A    between atoms: _375  and  _376
REMARK  151  A    between atoms: _375  and  _378
REMARK  152  A    between atoms: _381  and  _383
REMARK  153  A    between atoms: _393  and  _396
REMARK  154  A    between atoms: _396  and  _397
REMARK  155  A    between atoms: _404  and  _405
REMARK  156  A    between atoms: _412  and  _414
REMARK  157  A    between atoms: _414  and  _415
REMARK  158  A    between atoms: _414  and  _417
REMARK  159  A    between atoms: _420  and  _422
REMARK  160  A    between atoms: _422  and  _423
REMARK  161  A    between atoms: _422  and  _425
REMARK  162  A    between atoms: _428  and  _429
REMARK  163  A    between atoms: _434  and  _436
REMARK  164  A    between atoms: _436  and  _437
REMARK  165  A    between atoms: _436  and  _439
REMARK  166  A    between atoms: _442  and  _444
REMARK  167  A    between atoms: _444  and  _445
REMARK  168  A    between atoms: _444  and  _447
REMARK  169  A    between atoms: _447  and  _448
REMARK  170  A    between atoms: _451  and  _453
REMARK  171  A    between atoms: _453  and  _454
REMARK  172  A    between atoms: _453  and  _456
REMARK  173  A    between atoms: _456  and  _457
REMARK  174  A    between atoms: _457  and  _458
REMARK  175  A    between atoms: _461  and  _463
REMARK  176  A    between atoms: _463  and  _464
REMARK  177  A    between atoms: _463  and  _466
REMARK  178  A    between atoms: _466  and  _467
REMARK  179  A    between atoms: _470  and  _471
REMARK  180  A    between atoms: _476  and  _478
REMARK  181  A    between atoms: _478  and  _479
REMARK  182  A    between atoms: _478  and  _481
REMARK  183  A    between atoms: _481  and  _482
REMARK  184  A    between atoms: _492  and  _494
REMARK  185  A    between atoms: _494  and  _495
REMARK  186  A    between atoms: _494  and  _497
REMARK  187  A    between atoms: _497  and  _498
REMARK  188  A    between atoms: _498  and  _499
REMARK  189  A    between atoms: _501  and  _503
REMARK  190  A    between atoms: _503  and  _504
REMARK  191  A    between atoms: _503  and  _506
REMARK  192  A    between atoms: _506  and  _507
REMARK  193  A    between atoms: _507  and  _508
REMARK                            x       y       z     vdW  Elec       q    Type
REMARK                         _______ _______ _______ _____ _____    ______ ____
ROOT
ATOM      1  CA  TRP A   3      11.566  13.994  17.664  0.00  0.00    +0.153 C 
ENDROOT
BRANCH   1   4
ATOM      2  C   PRO A   2      13.101  15.868  17.655  0.00  0.00    +0.241 C 
ATOM      3  O   PRO A   2      12.379  16.484  18.432  0.00  0.00    -0.273 OA
ATOM      4  N   TRP A   3      12.791  14.655  17.214  0.00  0.00    -0.297 N 
ATOM      5  H   TRP A   3      13.423  14.171  16.544  0.00  0.00    +0.150 HD
BRANCH   2   9
ATOM      6  C   SER A   1      15.733  14.535  17.758  0.00  0.00    +0.244 C 
ATOM      7  O   SER A   1      15.381  14.714  18.930  0.00  0.00    -0.273 OA
ATOM      8  N   PRO A   2      15.336  15.342  16.781  0.00  0.00    -0.272 N 
ATOM      9  CA  PRO A   2      14.426  16.443  17.127  0.00  0.00    +0.152 C 
ATOM     10  CB  PRO A   2      14.264  17.178  15.805  0.00  0.00    +0.031 C 
ATOM     11  CG  PRO A   2      14.690  16.237  14.726  0.00  0.00    +0.024 C 
ATOM     12  CD  PRO A   2      15.658  15.267  15.350  0.00  0.00    +0.094 C 
BRANCH   6  13
ATOM     13  CA  SER A   1      16.611  13.357  17.365  0.00  0.00    +0.175 C 
BRANCH  13  14
ATOM     14  N   SER A   1      17.657  13.167  18.347  0.00  0.00    -0.236 NA
ATOM     15  H   SER A   1      17.791  12.232  18.782  0.00  0.00    +0.142 HD
ENDBRANCH  13  14
BRANCH  13  16
ATOM     16  CB  SER A   1      15.720  12.105  17.271  0.00  0.00    +0.163 C 
BRANCH  16  17
ATOM     17  OG  SER A   1      14.455  12.528  16.783  0.00  0.00    -0.380 OA
ATOM     18  H   SER A   1      14.065  13.188  17.409  0.00  0.00    +0.211 HD
ENDBRANCH  16  17
ENDBRANCH  13  16
ENDBRANCH   6  13
ENDBRANCH   2   9
ENDBRANCH   1   4
BRANCH   1  19
ATOM     19  C   TRP A   3      11.605  13.659  19.134  0.00  0.00    +0.241 C 
ATOM     20  O   TRP A   3      10.655  13.850  19.902  0.00  0.00    -0.273 OA
ATOM     21  N   MET A   4      12.743  13.146  19.601  0.00  0.00    -0.298 N 
ATOM     22  H   MET A   4      13.521  12.960  18.936  0.00  0.00    +0.150 HD
BRANCH  21  23
ATOM     23  CA  MET A   4      12.935  12.836  21.013  0.00  0.00    +0.138 C 
BRANCH  23  24
ATOM     24  C   MET A   4      12.906  14.113  21.836  0.00  0.00    +0.227 C 
ATOM     25  O   MET A   4      12.233  14.178  22.868  0.00  0.00    -0.286 OA
ENDBRANCH  23  24
BRANCH  23  26
ATOM     26  CB  MET A   4      14.248  12.081  21.200  0.00  0.00    +0.039 C 
BRANCH  26  27
ATOM     27  CG  MET A   4      14.760  11.970  22.627  0.00  0.00    +0.060 C 
BRANCH  27  28
ATOM     28  SD  MET A   4      16.424  11.263  22.682  0.00  0.00    -0.139 S 
ATOM     29  CE  MET A   4      16.354  10.332  24.218  0.00  0.00    +0.069 C 
ENDBRANCH  27  28
ENDBRANCH  26  27
ENDBRANCH  23  26
ENDBRANCH  21  23
ENDBRANCH   1  19
BRANCH   1  30
ATOM     30  CB  TRP A   3      11.335  12.708  16.832  0.00  0.00    +0.057 C 
BRANCH  30  31
ATOM     31  CG  TRP A   3      10.981  13.129  15.440  0.00  0.00    -0.002 A 
ATOM     32  CD2 TRP A   3       9.676  13.392  14.903  0.00  0.00    +0.013 A 
ATOM     33  CE3 TRP A   3       8.389  13.345  15.448  0.00  0.00    +0.001 A 
ATOM     34  CZ3 TRP A   3       7.322  13.668  14.632  0.00  0.00    +0.000 A 
ATOM     35  CH2 TRP A   3       7.516  14.031  13.293  0.00  0.00    +0.001 A 
ATOM     36  CZ2 TRP A   3       8.765  14.085  12.731  0.00  0.00    +0.017 A 
ATOM     37  CE2 TRP A   3       9.844  13.760  13.555  0.00  0.00    +0.056 A 
ATOM     38  NE1 TRP A   3      11.186  13.725  13.281  0.00  0.00    -0.352 N 
ATOM     39  HE1 TRP A   3      11.621  13.950  12.364  0.00  0.00    +0.166 HD
ATOM     40  CD1 TRP A   3      11.864  13.345  14.414  0.00  0.00    +0.068 A 
ENDBRANCH  30  31
ENDBRANCH   1  30
TORSDOF 14
REMARK  Name = ../refined-set-2016/1q54/1q54_pocket.pdb
REMARK  193 active torsions:
REMARK  status: ('A' for Active; 'I' for Inactive)
REMARK    1  A    between atoms: _1  and  _5
REMARK    2  A    between atoms: _5  and  _6
REMARK    3  A    between atoms: _5  and  _8
REMARK    4  A    between atoms: _8  and  _9
REMARK    5  A    between atoms: _9  and  _10
REMARK    6  A    between atoms: _13  and  _15
REMARK    7  A    between atoms: _15  and  _16
REMARK    8  A    between atoms: _15  and  _18
REMARK    9  A    between atoms: _18  and  _19
REMARK   10  A    between atoms: _24  and  _26
REMARK   11  A    between atoms: _26  and  _27
REMARK   12  A    between atoms: _26  and  _29
REMARK   13  A    between atoms: _32  and  _34
REMARK   14  A    between atoms: _34  and  _35
REMARK   15  A    between atoms: _34  and  _37
REMARK   16  A    between atoms: _37  and  _38
REMARK   17  A    between atoms: _38  and  _39
REMARK   18  A    between atoms: _39  and  _40
REMARK   19  A    between atoms: _40  and  _41
REMARK   20  A    between atoms: _45  and  _47
REMARK   21  A    between atoms: _47  and  _48
REMARK   22  A    between atoms: _47  and  _50
REMARK   23  A    between atoms: _50  and  _51
REMARK   24  A    between atoms: _55  and  MN_513
REMARK   25  A    between atoms: _56  and  _58
REMARK   26  A    between atoms: _58  and  _59
REMARK   27  A    between atoms: _58  and  _61
REMARK   28  A    between atoms: _61  and  _62
REMARK   29  A    between atoms: _66  and  MN_513
REMARK   30  A    between atoms: _67  and  _69
REMARK   31  A    between atoms: _69  and  _70
REMARK   32  A    between atoms: _69  and  _72
REMARK   33  A    between atoms: _72  and  _73
REMARK   34  A    between atoms: _76  and  _78
REMARK   35  A    between atoms: _78  and  _79
REMARK   36  A    between atoms: _82  and  _84
REMARK   37  A    between atoms: _84  and  _85
REMARK   38  A    between atoms: _84  and  _87
REMARK   39  A    between atoms: _87  and  _88
REMARK   40  A    between atoms: _94  and  _96
REMARK   41  A    between atoms: _96  and  _97
REMARK   42  A    between atoms: _96  and  _99
REMARK   43  A    between atoms: _99  and  _100
REMARK   44  A    between atoms: _102  and  _104
REMARK   45  A    between atoms: _104  and  _105
REMARK   46  A    between atoms: _104  and  _107
REMARK   47  A    between atoms: _107  and  _108
REMARK   48  A    between atoms: _110  and  _112
REMARK   49  A    between atoms: _112  and  _113
REMARK   50  A    between atoms: _112  and  _115
REMARK   51  A    between atoms: _115  and  _116
REMARK   52  A    between atoms: _126  and  _128
REMARK   53  A    between atoms: _128  and  _129
REMARK   54  A    between atoms: _128  and  _131
REMARK   55  A    between atoms: _131  and  _132
REMARK   56  A    between atoms: _135  and  _137
REMARK   57  A    between atoms: _137  and  _138
REMARK   58  A    between atoms: _137  and  _140
REMARK   59  A    between atoms: _140  and  _141
REMARK   60  A    between atoms: _141  and  _142
REMARK   61  A    between atoms: _142  and  _143
REMARK   62  A    between atoms: _152  and  _154
REMARK   63  A    between atoms: _154  and  _155
REMARK   64  A    between atoms: _158  and  _160
REMARK   65  A    between atoms: _160  and  _161
REMARK   66  A    between atoms: _160  and  _163
REMARK   67  A    between atoms: _163  and  _164
REMARK   68  A    between atoms: _164  and  _165
REMARK   69  A    between atoms: _165  and  _166
REMARK   70  A    between atoms: _166  and  _167
REMARK   71  A    between atoms: _171  and  _173
REMARK   72  A    between atoms: _173  and  _174
REMARK   73  A    between atoms: _173  and  _176
REMARK   74  A    between atoms: _176  and  _177
REMARK   75  A    between atoms: _177  and  _178
REMARK   76  A    between atoms: _178  and  _179
REMARK   77  A    between atoms: _179  and  _180
REMARK   78  A    between atoms: _184  and  _186
REMARK   79  A    between atoms: _186  and  _187
REMARK   80  A    between atoms: _190  and  _192
REMARK   81  A    between atoms: _192  and  _193
REMARK   82  A    between atoms: _192  and  _195
REMARK   83  A    between atoms: _195  and  _196
REMARK   84  A    between atoms: _206  and  _208
REMARK   85  A    between atoms: _208  and  _209
REMARK   86  A    between atoms: _208  and  _211
REMARK   87  A    between atoms: _211  and  _212
REMARK   88  A    between atoms: _215  and  _217
REMARK   89  A    between atoms: _217  and  _218
REMARK   90  A    between atoms: _217  and  _220
REMARK   91  A    between atoms: _220  and  _221
REMARK   92  A    between atoms: _226  and  _228
REMARK   93  A    between atoms: _228  and  _229
REMARK   94  A    between atoms: _228  and  _231
REMARK   95  A    between atoms: _231  and  _232
REMARK   96  A    between atoms: _234  and  _236
REMARK   97  A    between atoms: _236  and  _237
REMARK   98  A    between atoms: _236  and  _239
REMARK   99  A    between atoms: _242  and  _244
REMARK  100  A    between atoms: _244  and  _245
REMARK  101  A    between atoms: _248  and  _250
REMARK  102  A    between atoms: _250  and  _251
REMARK  103  A    between atoms: _253  and  _255
REMARK  104  A    between atoms: _255  and  _256
REMARK  105  A    between atoms: _255  and  _258
REMARK  106  A    between atoms: _258  and  _259
REMARK  107  A    between atoms: _263  and  MN_513
REMARK  108  A    between atoms: _265  and  _266
REMARK  109  A    between atoms: _271  and  _273
REMARK  110  A    between atoms: _273  and  _274
REMARK  111  A    between atoms: _273  and  _276
REMARK  112  A    between atoms: _276  and  _277
REMARK  113  A    between atoms: _277  and  _278
REMARK  114  A    between atoms: _283  and  _285
REMARK  115  A    between atoms: _285  and  _286
REMARK  116  A    between atoms: _285  and  _288
REMARK  117  A    between atoms: _288  and  _289
REMARK  118  A    between atoms: _289  and  _290
REMARK  119  A    between atoms: _290  and  _291
REMARK  120  A    between atoms: _300  and  _302
REMARK  121  A    between atoms: _302  and  _303
REMARK  122  A    between atoms: _302  and  _305
REMARK  123  A    between atoms: _305  and  _306
REMARK  124  A    between atoms: _306  and  _307
REMARK  125  A    between atoms: _307  and  _308
REMARK  126  A    between atoms: _317  and  _319
REMARK  127  A    between atoms: _319  and  _320
REMARK  128  A    between atoms: _319  and  _322
REMARK  129  A    between atoms: _322  and  _323
REMARK  130  A    between atoms: _328  and  _329
REMARK  131  A    between atoms: _331  and  _333
REMARK  132  A    between atoms: _333  and  _334
REMARK  133  A    between atoms: _333  and  _336
REMARK  134  A    between atoms: _336  and  _337
REMARK  135  A    between atoms: _337  and  _338
REMARK  136  A    between atoms: _338  and  _340
REMARK  137  A    between atoms: _340  and  MG_514
REMARK  138  A    between atoms: _341  and  _343
REMARK  139  A    between atoms: _343  and  _344
REMARK  140  A    between atoms: _343  and  _346
REMARK  141  A    between atoms: _346  and  _347
REMARK  142  A    between atoms: _353  and  _355
REMARK  143  A    between atoms: _355  and  _356
REMARK  144  A    between atoms: _355  and  _358
REMARK  145  A    between atoms: _358  and  _359
REMARK  146  A    between atoms: _364  and  _365
REMARK  147  A    between atoms: _367  and  _369
REMARK  148  A    between atoms: _369  and  _370
REMARK  149  A    between atoms: _373  and  _375
REMARK  150  A    between atoms: _375  and  _376
REMARK  151  A    between atoms: _375  and  _378
REMARK  152  A    between atoms: _381  and  _383
REMARK  153  A    between atoms: _393  and  _396
REMARK  154  A    between atoms: _396  and  _397
REMARK  155  A    between atoms: _404  and  _405
REMARK  156  A    between atoms: _412  and  _414
REMARK  157  A    between atoms: _414  and  _415
REMARK  158  A    between atoms: _414  and  _417
REMARK  159  A    between atoms: _420  and  _422
REMARK  160  A    between atoms: _422  and  _423
REMARK  161  A    between atoms: _422  and  _425
REMARK  162  A    between atoms: _428  and  _429
REMARK  163  A    between atoms: _434  and  _436
REMARK  164  A    between atoms: _436  and  _437
REMARK  165  A    between atoms: _436  and  _439
REMARK  166  A    between atoms: _442  and  _444
REMARK  167  A    between atoms: _444  and  _445
REMARK  168  A    between atoms: _444  and  _447
REMARK  169  A    between atoms: _447  and  _448
REMARK  170  A    between atoms: _451  and  _453
REMARK  171  A    between atoms: _453  and  _454
REMARK  172  A    between atoms: _453  and  _456
REMARK  173  A    between atoms: _456  and  _457
REMARK  174  A    between atoms: _457  and  _458
REMARK  175  A    between atoms: _461  and  _463
REMARK  176  A    between atoms: _463  and  _464
REMARK  177  A    between atoms: _463  and  _466
REMARK  178  A    between atoms: _466  and  _467
REMARK  179  A    between atoms: _470  and  _471
REMARK  180  A    between atoms: _476  and  _478
REMARK  181  A    between atoms: _478  and  _479
REMARK  182  A    between atoms: _478  and  _481
REMARK  183  A    between atoms: _481  and  _482
REMARK  184  A    between atoms: _492  and  _494
REMARK  185  A    between atoms: _494  and  _495
REMARK  186  A    between atoms: _494  and  _497
REMARK  187  A    between atoms: _497  and  _498
REMARK  188  A    between atoms: _498  and  _499
REMARK  189  A    between atoms: _501  and  _503
REMARK  190  A    between atoms: _503  and  _504
REMARK  191  A    between atoms: _503  and  _506
REMARK  192  A    between atoms: _506  and  _507
REMARK  193  A    between atoms: _507  and  _508
REMARK                            x       y       z     vdW  Elec       q    Type
REMARK                         _______ _______ _______ _____ _____    ______ ____
ROOT
ATOM      1  CB  GLN A   1       8.587  13.375  22.972  0.00  0.00    +0.035 C 
ENDROOT
BRANCH   1   2
ATOM      2  CA  GLN A   1       8.555  14.873  23.273  0.00  0.00    +0.134 C 
BRANCH   2   3
ATOM      3  N   GLN A   1       9.378  15.627  22.332  0.00  0.00    -0.239 NA
ATOM      4  H   GLN A   1      10.008  15.123  21.676  0.00  0.00    +0.142 HD
ENDBRANCH   2   3
BRANCH   2   5
ATOM      5  C   GLN A   1       9.030  15.091  24.706  0.00  0.00    +0.224 C 
ATOM      6  O   GLN A   1       8.242  15.197  25.647  0.00  0.00    -0.287 OA
ENDBRANCH   2   5
ENDBRANCH   1   2
BRANCH   1   7
ATOM      7  CG  GLN A   1       7.968  12.959  21.647  0.00  0.00    +0.087 C 
BRANCH   7   8
ATOM      8  CD  GLN A   1       8.531  11.627  21.181  0.00  0.00    +0.219 C 
ATOM      9  OE1 GLN A   1       8.796  10.749  22.004  0.00  0.00    -0.275 OA
ATOM     10  NE2 GLN A   1       8.712  11.474  19.876  0.00  0.00    -0.329 N 
ATOM     11 HE21 GLN A   1       9.094  10.581  19.505  0.00  0.00    +0.145 HD
ATOM     12 HE22 GLN A   1       8.472  12.247  19.224  0.00  0.00    +0.145 HD
ENDBRANCH   7   8
ENDBRANCH   1   7
TORSDOF 5
REMARK  Name = ../refined-set-2016/1q54/1q54_pocket.pdb
REMARK  193 active torsions:
REMARK  status: ('A' for Active; 'I' for Inactive)
REMARK    1  A    between atoms: _1  and  _5
REMARK    2  A    between atoms: _5  and  _6
REMARK    3  A    between atoms: _5  and  _8
REMARK    4  A    between atoms: _8  and  _9
REMARK    5  A    between atoms: _9  and  _10
REMARK    6  A    between atoms: _13  and  _15
REMARK    7  A    between atoms: _15  and  _16
REMARK    8  A    between atoms: _15  and  _18
REMARK    9  A    between atoms: _18  and  _19
REMARK   10  A    between atoms: _24  and  _26
REMARK   11  A    between atoms: _26  and  _27
REMARK   12  A    between atoms: _26  and  _29
REMARK   13  A    between atoms: _32  and  _34
REMARK   14  A    between atoms: _34  and  _35
REMARK   15  A    between atoms: _34  and  _37
REMARK   16  A    between atoms: _37  and  _38
REMARK   17  A    between atoms: _38  and  _39
REMARK   18  A    between atoms: _39  and  _40
REMARK   19  A    between atoms: _40  and  _41
REMARK   20  A    between atoms: _45  and  _47
REMARK   21  A    between atoms: _47  and  _48
REMARK   22  A    between atoms: _47  and  _50
REMARK   23  A    between atoms: _50  and  _51
REMARK   24  A    between atoms: _55  and  MN_513
REMARK   25  A    between atoms: _56  and  _58
REMARK   26  A    between atoms: _58  and  _59
REMARK   27  A    between atoms: _58  and  _61
REMARK   28  A    between atoms: _61  and  _62
REMARK   29  A    between atoms: _66  and  MN_513
REMARK   30  A    between atoms: _67  and  _69
REMARK   31  A    between atoms: _69  and  _70
REMARK   32  A    between atoms: _69  and  _72
REMARK   33  A    between atoms: _72  and  _73
REMARK   34  A    between atoms: _76  and  _78
REMARK   35  A    between atoms: _78  and  _79
REMARK   36  A    between atoms: _82  and  _84
REMARK   37  A    between atoms: _84  and  _85
REMARK   38  A    between atoms: _84  and  _87
REMARK   39  A    between atoms: _87  and  _88
REMARK   40  A    between atoms: _94  and  _96
REMARK   41  A    between atoms: _96  and  _97
REMARK   42  A    between atoms: _96  and  _99
REMARK   43  A    between atoms: _99  and  _100
REMARK   44  A    between atoms: _102  and  _104
REMARK   45  A    between atoms: _104  and  _105
REMARK   46  A    between atoms: _104  and  _107
REMARK   47  A    between atoms: _107  and  _108
REMARK   48  A    between atoms: _110  and  _112
REMARK   49  A    between atoms: _112  and  _113
REMARK   50  A    between atoms: _112  and  _115
REMARK   51  A    between atoms: _115  and  _116
REMARK   52  A    between atoms: _126  and  _128
REMARK   53  A    between atoms: _128  and  _129
REMARK   54  A    between atoms: _128  and  _131
REMARK   55  A    between atoms: _131  and  _132
REMARK   56  A    between atoms: _135  and  _137
REMARK   57  A    between atoms: _137  and  _138
REMARK   58  A    between atoms: _137  and  _140
REMARK   59  A    between atoms: _140  and  _141
REMARK   60  A    between atoms: _141  and  _142
REMARK   61  A    between atoms: _142  and  _143
REMARK   62  A    between atoms: _152  and  _154
REMARK   63  A    between atoms: _154  and  _155
REMARK   64  A    between atoms: _158  and  _160
REMARK   65  A    between atoms: _160  and  _161
REMARK   66  A    between atoms: _160  and  _163
REMARK   67  A    between atoms: _163  and  _164
REMARK   68  A    between atoms: _164  and  _165
REMARK   69  A    between atoms: _165  and  _166
REMARK   70  A    between atoms: _166  and  _167
REMARK   71  A    between atoms: _171  and  _173
REMARK   72  A    between atoms: _173  and  _174
REMARK   73  A    between atoms: _173  and  _176
REMARK   74  A    between atoms: _176  and  _177
REMARK   75  A    between atoms: _177  and  _178
REMARK   76  A    between atoms: _178  and  _179
REMARK   77  A    between atoms: _179  and  _180
REMARK   78  A    between atoms: _184  and  _186
REMARK   79  A    between atoms: _186  and  _187
REMARK   80  A    between atoms: _190  and  _192
REMARK   81  A    between atoms: _192  and  _193
REMARK   82  A    between atoms: _192  and  _195
REMARK   83  A    between atoms: _195  and  _196
REMARK   84  A    between atoms: _206  and  _208
REMARK   85  A    between atoms: _208  and  _209
REMARK   86  A    between atoms: _208  and  _211
REMARK   87  A    between atoms: _211  and  _212
REMARK   88  A    between atoms: _215  and  _217
REMARK   89  A    between atoms: _217  and  _218
REMARK   90  A    between atoms: _217  and  _220
REMARK   91  A    between atoms: _220  and  _221
REMARK   92  A    between atoms: _226  and  _228
REMARK   93  A    between atoms: _228  and  _229
REMARK   94  A    between atoms: _228  and  _231
REMARK   95  A    between atoms: _231  and  _232
REMARK   96  A    between atoms: _234  and  _236
REMARK   97  A    between atoms: _236  and  _237
REMARK   98  A    between atoms: _236  and  _239
REMARK   99  A    between atoms: _242  and  _244
REMARK  100  A    between atoms: _244  and  _245
REMARK  101  A    between atoms: _248  and  _250
REMARK  102  A    between atoms: _250  and  _251
REMARK  103  A    between atoms: _253  and  _255
REMARK  104  A    between atoms: _255  and  _256
REMARK  105  A    between atoms: _255  and  _258
REMARK  106  A    between atoms: _258  and  _259
REMARK  107  A    between atoms: _263  and  MN_513
REMARK  108  A    between atoms: _265  and  _266
REMARK  109  A    between atoms: _271  and  _273
REMARK  110  A    between atoms: _273  and  _274
REMARK  111  A    between atoms: _273  and  _276
REMARK  112  A    between atoms: _276  and  _277
REMARK  113  A    between atoms: _277  and  _278
REMARK  114  A    between atoms: _283  and  _285
REMARK  115  A    between atoms: _285  and  _286
REMARK  116  A    between atoms: _285  and  _288
REMARK  117  A    between atoms: _288  and  _289
REMARK  118  A    between atoms: _289  and  _290
REMARK  119  A    between atoms: _290  and  _291
REMARK  120  A    between atoms: _300  and  _302
REMARK  121  A    between atoms: _302  and  _303
REMARK  122  A    between atoms: _302  and  _305
REMARK  123  A    between atoms: _305  and  _306
REMARK  124  A    between atoms: _306  and  _307
REMARK  125  A    between atoms: _307  and  _308
REMARK  126  A    between atoms: _317  and  _319
REMARK  127  A    between atoms: _319  and  _320
REMARK  128  A    between atoms: _319  and  _322
REMARK  129  A    between atoms: _322  and  _323
REMARK  130  A    between atoms: _328  and  _329
REMARK  131  A    between atoms: _331  and  _333
REMARK  132  A    between atoms: _333  and  _334
REMARK  133  A    between atoms: _333  and  _336
REMARK  134  A    between atoms: _336  and  _337
REMARK  135  A    between atoms: _337  and  _338
REMARK  136  A    between atoms: _338  and  _340
REMARK  137  A    between atoms: _340  and  MG_514
REMARK  138  A    between atoms: _341  and  _343
REMARK  139  A    between atoms: _343  and  _344
REMARK  140  A    between atoms: _343  and  _346
REMARK  141  A    between atoms: _346  and  _347
REMARK  142  A    between atoms: _353  and  _355
REMARK  143  A    between atoms: _355  and  _356
REMARK  144  A    between atoms: _355  and  _358
REMARK  145  A    between atoms: _358  and  _359
REMARK  146  A    between atoms: _364  and  _365
REMARK  147  A    between atoms: _367  and  _369
REMARK  148  A    between atoms: _369  and  _370
REMARK  149  A    between atoms: _373  and  _375
REMARK  150  A    between atoms: _375  and  _376
REMARK  151  A    between atoms: _375  and  _378
REMARK  152  A    between atoms: _381  and  _383
REMARK  153  A    between atoms: _393  and  _396
REMARK  154  A    between atoms: _396  and  _397
REMARK  155  A    between atoms: _404  and  _405
REMARK  156  A    between atoms: _412  and  _414
REMARK  157  A    between atoms: _414  and  _415
REMARK  158  A    between atoms: _414  and  _417
REMARK  159  A    between atoms: _420  and  _422
REMARK  160  A    between atoms: _422  and  _423
REMARK  161  A    between atoms: _422  and  _425
REMARK  162  A    between atoms: _428  and  _429
REMARK  163  A    between atoms: _434  and  _436
REMARK  164  A    between atoms: _436  and  _437
REMARK  165  A    between atoms: _436  and  _439
REMARK  166  A    between atoms: _442  and  _444
REMARK  167  A    between atoms: _444  and  _445
REMARK  168  A    between atoms: _444  and  _447
REMARK  169  A    between atoms: _447  and  _448
REMARK  170  A    between atoms: _451  and  _453
REMARK  171  A    between atoms: _453  and  _454
REMARK  172  A    between atoms: _453  and  _456
REMARK  173  A    between atoms: _456  and  _457
REMARK  174  A    between atoms: _457  and  _458
REMARK  175  A    between atoms: _461  and  _463
REMARK  176  A    between atoms: _463  and  _464
REMARK  177  A    between atoms: _463  and  _466
REMARK  178  A    between atoms: _466  and  _467
REMARK  179  A    between atoms: _470  and  _471
REMARK  180  A    between atoms: _476  and  _478
REMARK  181  A    between atoms: _478  and  _479
REMARK  182  A    between atoms: _478  and  _481
REMARK  183  A    between atoms: _481  and  _482
REMARK  184  A    between atoms: _492  and  _494
REMARK  185  A    between atoms: _494  and  _495
REMARK  186  A    between atoms: _494  and  _497
REMARK  187  A    between atoms: _497  and  _498
REMARK  188  A    between atoms: _498  and  _499
REMARK  189  A    between atoms: _501  and  _503
REMARK  190  A    between atoms: _503  and  _504
REMARK  191  A    between atoms: _503  and  _506
REMARK  192  A    between atoms: _506  and  _507
REMARK  193  A    between atoms: _507  and  _508
REMARK                            x       y       z     vdW  Elec       q    Type
REMARK                         _______ _______ _______ _____ _____    ______ ____
ROOT
ATOM      1  O   HOH     1      13.071  10.038  12.903  0.00  0.00    +0.000 OA
ENDROOT
TORSDOF 0
REMARK  Name = ../refined-set-2016/1q54/1q54_pocket.pdb
REMARK  193 active torsions:
REMARK  status: ('A' for Active; 'I' for Inactive)
REMARK    1  A    between atoms: _1  and  _5
REMARK    2  A    between atoms: _5  and  _6
REMARK    3  A    between atoms: _5  and  _8
REMARK    4  A    between atoms: _8  and  _9
REMARK    5  A    between atoms: _9  and  _10
REMARK    6  A    between atoms: _13  and  _15
REMARK    7  A    between atoms: _15  and  _16
REMARK    8  A    between atoms: _15  and  _18
REMARK    9  A    between atoms: _18  and  _19
REMARK   10  A    between atoms: _24  and  _26
REMARK   11  A    between atoms: _26  and  _27
REMARK   12  A    between atoms: _26  and  _29
REMARK   13  A    between atoms: _32  and  _34
REMARK   14  A    between atoms: _34  and  _35
REMARK   15  A    between atoms: _34  and  _37
REMARK   16  A    between atoms: _37  and  _38
REMARK   17  A    between atoms: _38  and  _39
REMARK   18  A    between atoms: _39  and  _40
REMARK   19  A    between atoms: _40  and  _41
REMARK   20  A    between atoms: _45  and  _47
REMARK   21  A    between atoms: _47  and  _48
REMARK   22  A    between atoms: _47  and  _50
REMARK   23  A    between atoms: _50  and  _51
REMARK   24  A    between atoms: _55  and  MN_513
REMARK   25  A    between atoms: _56  and  _58
REMARK   26  A    between atoms: _58  and  _59
REMARK   27  A    between atoms: _58  and  _61
REMARK   28  A    between atoms: _61  and  _62
REMARK   29  A    between atoms: _66  and  MN_513
REMARK   30  A    between atoms: _67  and  _69
REMARK   31  A    between atoms: _69  and  _70
REMARK   32  A    between atoms: _69  and  _72
REMARK   33  A    between atoms: _72  and  _73
REMARK   34  A    between atoms: _76  and  _78
REMARK   35  A    between atoms: _78  and  _79
REMARK   36  A    between atoms: _82  and  _84
REMARK   37  A    between atoms: _84  and  _85
REMARK   38  A    between atoms: _84  and  _87
REMARK   39  A    between atoms: _87  and  _88
REMARK   40  A    between atoms: _94  and  _96
REMARK   41  A    between atoms: _96  and  _97
REMARK   42  A    between atoms: _96  and  _99
REMARK   43  A    between atoms: _99  and  _100
REMARK   44  A    between atoms: _102  and  _104
REMARK   45  A    between atoms: _104  and  _105
REMARK   46  A    between atoms: _104  and  _107
REMARK   47  A    between atoms: _107  and  _108
REMARK   48  A    between atoms: _110  and  _112
REMARK   49  A    between atoms: _112  and  _113
REMARK   50  A    between atoms: _112  and  _115
REMARK   51  A    between atoms: _115  and  _116
REMARK   52  A    between atoms: _126  and  _128
REMARK   53  A    between atoms: _128  and  _129
REMARK   54  A    between atoms: _128  and  _131
REMARK   55  A    between atoms: _131  and  _132
REMARK   56  A    between atoms: _135  and  _137
REMARK   57  A    between atoms: _137  and  _138
REMARK   58  A    between atoms: _137  and  _140
REMARK   59  A    between atoms: _140  and  _141
REMARK   60  A    between atoms: _141  and  _142
REMARK   61  A    between atoms: _142  and  _143
REMARK   62  A    between atoms: _152  and  _154
REMARK   63  A    between atoms: _154  and  _155
REMARK   64  A    between atoms: _158  and  _160
REMARK   65  A    between atoms: _160  and  _161
REMARK   66  A    between atoms: _160  and  _163
REMARK   67  A    between atoms: _163  and  _164
REMARK   68  A    between atoms: _164  and  _165
REMARK   69  A    between atoms: _165  and  _166
REMARK   70  A    between atoms: _166  and  _167
REMARK   71  A    between atoms: _171  and  _173
REMARK   72  A    between atoms: _173  and  _174
REMARK   73  A    between atoms: _173  and  _176
REMARK   74  A    between atoms: _176  and  _177
REMARK   75  A    between atoms: _177  and  _178
REMARK   76  A    between atoms: _178  and  _179
REMARK   77  A    between atoms: _179  and  _180
REMARK   78  A    between atoms: _184  and  _186
REMARK   79  A    between atoms: _186  and  _187
REMARK   80  A    between atoms: _190  and  _192
REMARK   81  A    between atoms: _192  and  _193
REMARK   82  A    between atoms: _192  and  _195
REMARK   83  A    between atoms: _195  and  _196
REMARK   84  A    between atoms: _206  and  _208
REMARK   85  A    between atoms: _208  and  _209
REMARK   86  A    between atoms: _208  and  _211
REMARK   87  A    between atoms: _211  and  _212
REMARK   88  A    between atoms: _215  and  _217
REMARK   89  A    between atoms: _217  and  _218
REMARK   90  A    between atoms: _217  and  _220
REMARK   91  A    between atoms: _220  and  _221
REMARK   92  A    between atoms: _226  and  _228
REMARK   93  A    between atoms: _228  and  _229
REMARK   94  A    between atoms: _228  and  _231
REMARK   95  A    between atoms: _231  and  _232
REMARK   96  A    between atoms: _234  and  _236
REMARK   97  A    between atoms: _236  and  _237
REMARK   98  A    between atoms: _236  and  _239
REMARK   99  A    between atoms: _242  and  _244
REMARK  100  A    between atoms: _244  and  _245
REMARK  101  A    between atoms: _248  and  _250
REMARK  102  A    between atoms: _250  and  _251
REMARK  103  A    between atoms: _253  and  _255
REMARK  104  A    between atoms: _255  and  _256
REMARK  105  A    between atoms: _255  and  _258
REMARK  106  A    between atoms: _258  and  _259
REMARK  107  A    between atoms: _263  and  MN_513
REMARK  108  A    between atoms: _265  and  _266
REMARK  109  A    between atoms: _271  and  _273
REMARK  110  A    between atoms: _273  and  _274
REMARK  111  A    between atoms: _273  and  _276
REMARK  112  A    between atoms: _276  and  _277
REMARK  113  A    between atoms: _277  and  _278
REMARK  114  A    between atoms: _283  and  _285
REMARK  115  A    between atoms: _285  and  _286
REMARK  116  A    between atoms: _285  and  _288
REMARK  117  A    between atoms: _288  and  _289
REMARK  118  A    between atoms: _289  and  _290
REMARK  119  A    between atoms: _290  and  _291
REMARK  120  A    between atoms: _300  and  _302
REMARK  121  A    between atoms: _302  and  _303
REMARK  122  A    between atoms: _302  and  _305
REMARK  123  A    between atoms: _305  and  _306
REMARK  124  A    between atoms: _306  and  _307
REMARK  125  A    between atoms: _307  and  _308
REMARK  126  A    between atoms: _317  and  _319
REMARK  127  A    between atoms: _319  and  _320
REMARK  128  A    between atoms: _319  and  _322
REMARK  129  A    between atoms: _322  and  _323
REMARK  130  A    between atoms: _328  and  _329
REMARK  131  A    between atoms: _331  and  _333
REMARK  132  A    between atoms: _333  and  _334
REMARK  133  A    between atoms: _333  and  _336
REMARK  134  A    between atoms: _336  and  _337
REMARK  135  A    between atoms: _337  and  _338
REMARK  136  A    between atoms: _338  and  _340
REMARK  137  A    between atoms: _340  and  MG_514
REMARK  138  A    between atoms: _341  and  _343
REMARK  139  A    between atoms: _343  and  _344
REMARK  140  A    between atoms: _343  and  _346
REMARK  141  A    between atoms: _346  and  _347
REMARK  142  A    between atoms: _353  and  _355
REMARK  143  A    between atoms: _355  and  _356
REMARK  144  A    between atoms: _355  and  _358
REMARK  145  A    between atoms: _358  and  _359
REMARK  146  A    between atoms: _364  and  _365
REMARK  147  A    between atoms: _367  and  _369
REMARK  148  A    between atoms: _369  and  _370
REMARK  149  A    between atoms: _373  and  _375
REMARK  150  A    between atoms: _375  and  _376
REMARK  151  A    between atoms: _375  and  _378
REMARK  152  A    between atoms: _381  and  _383
REMARK  153  A    between atoms: _393  and  _396
REMARK  154  A    between atoms: _396  and  _397
REMARK  155  A    between atoms: _404  and  _405
REMARK  156  A    between atoms: _412  and  _414
REMARK  157  A    between atoms: _414  and  _415
REMARK  158  A    between atoms: _414  and  _417
REMARK  159  A    between atoms: _420  and  _422
REMARK  160  A    between atoms: _422  and  _423
REMARK  161  A    between atoms: _422  and  _425
REMARK  162  A    between atoms: _428  and  _429
REMARK  163  A    between atoms: _434  and  _436
REMARK  164  A    between atoms: _436  and  _437
REMARK  165  A    between atoms: _436  and  _439
REMARK  166  A    between atoms: _442  and  _444
REMARK  167  A    between atoms: _444  and  _445
REMARK  168  A    between atoms: _444  and  _447
REMARK  169  A    between atoms: _447  and  _448
REMARK  170  A    between atoms: _451  and  _453
REMARK  171  A    between atoms: _453  and  _454
REMARK  172  A    between atoms: _453  and  _456
REMARK  173  A    between atoms: _456  and  _457
REMARK  174  A    between atoms: _457  and  _458
REMARK  175  A    between atoms: _461  and  _463
REMARK  176  A    between atoms: _463  and  _464
REMARK  177  A    between atoms: _463  and  _466
REMARK  178  A    between atoms: _466  and  _467
REMARK  179  A    between atoms: _470  and  _471
REMARK  180  A    between atoms: _476  and  _478
REMARK  181  A    between atoms: _478  and  _479
REMARK  182  A    between atoms: _478  and  _481
REMARK  183  A    between atoms: _481  and  _482
REMARK  184  A    between atoms: _492  and  _494
REMARK  185  A    between atoms: _494  and  _495
REMARK  186  A    between atoms: _494  and  _497
REMARK  187  A    between atoms: _497  and  _498
REMARK  188  A    between atoms: _498  and  _499
REMARK  189  A    between atoms: _501  and  _503
REMARK  190  A    between atoms: _503  and  _504
REMARK  191  A    between atoms: _503  and  _506
REMARK  192  A    between atoms: _506  and  _507
REMARK  193  A    between atoms: _507  and  _508
REMARK                            x       y       z     vdW  Elec       q    Type
REMARK                         _______ _______ _______ _____ _____    ______ ____
ROOT
ATOM      1  O   HOH     1      13.205   1.940  13.386  0.00  0.00    +0.000 OA
ENDROOT
TORSDOF 0
REMARK  Name = ../refined-set-2016/1q54/1q54_pocket.pdb
REMARK  193 active torsions:
REMARK  status: ('A' for Active; 'I' for Inactive)
REMARK    1  A    between atoms: _1  and  _5
REMARK    2  A    between atoms: _5  and  _6
REMARK    3  A    between atoms: _5  and  _8
REMARK    4  A    between atoms: _8  and  _9
REMARK    5  A    between atoms: _9  and  _10
REMARK    6  A    between atoms: _13  and  _15
REMARK    7  A    between atoms: _15  and  _16
REMARK    8  A    between atoms: _15  and  _18
REMARK    9  A    between atoms: _18  and  _19
REMARK   10  A    between atoms: _24  and  _26
REMARK   11  A    between atoms: _26  and  _27
REMARK   12  A    between atoms: _26  and  _29
REMARK   13  A    between atoms: _32  and  _34
REMARK   14  A    between atoms: _34  and  _35
REMARK   15  A    between atoms: _34  and  _37
REMARK   16  A    between atoms: _37  and  _38
REMARK   17  A    between atoms: _38  and  _39
REMARK   18  A    between atoms: _39  and  _40
REMARK   19  A    between atoms: _40  and  _41
REMARK   20  A    between atoms: _45  and  _47
REMARK   21  A    between atoms: _47  and  _48
REMARK   22  A    between atoms: _47  and  _50
REMARK   23  A    between atoms: _50  and  _51
REMARK   24  A    between atoms: _55  and  MN_513
REMARK   25  A    between atoms: _56  and  _58
REMARK   26  A    between atoms: _58  and  _59
REMARK   27  A    between atoms: _58  and  _61
REMARK   28  A    between atoms: _61  and  _62
REMARK   29  A    between atoms: _66  and  MN_513
REMARK   30  A    between atoms: _67  and  _69
REMARK   31  A    between atoms: _69  and  _70
REMARK   32  A    between atoms: _69  and  _72
REMARK   33  A    between atoms: _72  and  _73
REMARK   34  A    between atoms: _76  and  _78
REMARK   35  A    between atoms: _78  and  _79
REMARK   36  A    between atoms: _82  and  _84
REMARK   37  A    between atoms: _84  and  _85
REMARK   38  A    between atoms: _84  and  _87
REMARK   39  A    between atoms: _87  and  _88
REMARK   40  A    between atoms: _94  and  _96
REMARK   41  A    between atoms: _96  and  _97
REMARK   42  A    between atoms: _96  and  _99
REMARK   43  A    between atoms: _99  and  _100
REMARK   44  A    between atoms: _102  and  _104
REMARK   45  A    between atoms: _104  and  _105
REMARK   46  A    between atoms: _104  and  _107
REMARK   47  A    between atoms: _107  and  _108
REMARK   48  A    between atoms: _110  and  _112
REMARK   49  A    between atoms: _112  and  _113
REMARK   50  A    between atoms: _112  and  _115
REMARK   51  A    between atoms: _115  and  _116
REMARK   52  A    between atoms: _126  and  _128
REMARK   53  A    between atoms: _128  and  _129
REMARK   54  A    between atoms: _128  and  _131
REMARK   55  A    between atoms: _131  and  _132
REMARK   56  A    between atoms: _135  and  _137
REMARK   57  A    between atoms: _137  and  _138
REMARK   58  A    between atoms: _137  and  _140
REMARK   59  A    between atoms: _140  and  _141
REMARK   60  A    between atoms: _141  and  _142
REMARK   61  A    between atoms: _142  and  _143
REMARK   62  A    between atoms: _152  and  _154
REMARK   63  A    between atoms: _154  and  _155
REMARK   64  A    between atoms: _158  and  _160
REMARK   65  A    between atoms: _160  and  _161
REMARK   66  A    between atoms: _160  and  _163
REMARK   67  A    between atoms: _163  and  _164
REMARK   68  A    between atoms: _164  and  _165
REMARK   69  A    between atoms: _165  and  _166
REMARK   70  A    between atoms: _166  and  _167
REMARK   71  A    between atoms: _171  and  _173
REMARK   72  A    between atoms: _173  and  _174
REMARK   73  A    between atoms: _173  and  _176
REMARK   74  A    between atoms: _176  and  _177
REMARK   75  A    between atoms: _177  and  _178
REMARK   76  A    between atoms: _178  and  _179
REMARK   77  A    between atoms: _179  and  _180
REMARK   78  A    between atoms: _184  and  _186
REMARK   79  A    between atoms: _186  and  _187
REMARK   80  A    between atoms: _190  and  _192
REMARK   81  A    between atoms: _192  and  _193
REMARK   82  A    between atoms: _192  and  _195
REMARK   83  A    between atoms: _195  and  _196
REMARK   84  A    between atoms: _206  and  _208
REMARK   85  A    between atoms: _208  and  _209
REMARK   86  A    between atoms: _208  and  _211
REMARK   87  A    between atoms: _211  and  _212
REMARK   88  A    between atoms: _215  and  _217
REMARK   89  A    between atoms: _217  and  _218
REMARK   90  A    between atoms: _217  and  _220
REMARK   91  A    between atoms: _220  and  _221
REMARK   92  A    between atoms: _226  and  _228
REMARK   93  A    between atoms: _228  and  _229
REMARK   94  A    between atoms: _228  and  _231
REMARK   95  A    between atoms: _231  and  _232
REMARK   96  A    between atoms: _234  and  _236
REMARK   97  A    between atoms: _236  and  _237
REMARK   98  A    between atoms: _236  and  _239
REMARK   99  A    between atoms: _242  and  _244
REMARK  100  A    between atoms: _244  and  _245
REMARK  101  A    between atoms: _248  and  _250
REMARK  102  A    between atoms: _250  and  _251
REMARK  103  A    between atoms: _253  and  _255
REMARK  104  A    between atoms: _255  and  _256
REMARK  105  A    between atoms: _255  and  _258
REMARK  106  A    between atoms: _258  and  _259
REMARK  107  A    between atoms: _263  and  MN_513
REMARK  108  A    between atoms: _265  and  _266
REMARK  109  A    between atoms: _271  and  _273
REMARK  110  A    between atoms: _273  and  _274
REMARK  111  A    between atoms: _273  and  _276
REMARK  112  A    between atoms: _276  and  _277
REMARK  113  A    between atoms: _277  and  _278
REMARK  114  A    between atoms: _283  and  _285
REMARK  115  A    between atoms: _285  and  _286
REMARK  116  A    between atoms: _285  and  _288
REMARK  117  A    between atoms: _288  and  _289
REMARK  118  A    between atoms: _289  and  _290
REMARK  119  A    between atoms: _290  and  _291
REMARK  120  A    between atoms: _300  and  _302
REMARK  121  A    between atoms: _302  and  _303
REMARK  122  A    between atoms: _302  and  _305
REMARK  123  A    between atoms: _305  and  _306
REMARK  124  A    between atoms: _306  and  _307
REMARK  125  A    between atoms: _307  and  _308
REMARK  126  A    between atoms: _317  and  _319
REMARK  127  A    between atoms: _319  and  _320
REMARK  128  A    between atoms: _319  and  _322
REMARK  129  A    between atoms: _322  and  _323
REMARK  130  A    between atoms: _328  and  _329
REMARK  131  A    between atoms: _331  and  _333
REMARK  132  A    between atoms: _333  and  _334
REMARK  133  A    between atoms: _333  and  _336
REMARK  134  A    between atoms: _336  and  _337
REMARK  135  A    between atoms: _337  and  _338
REMARK  136  A    between atoms: _338  and  _340
REMARK  137  A    between atoms: _340  and  MG_514
REMARK  138  A    between atoms: _341  and  _343
REMARK  139  A    between atoms: _343  and  _344
REMARK  140  A    between atoms: _343  and  _346
REMARK  141  A    between atoms: _346  and  _347
REMARK  142  A    between atoms: _353  and  _355
REMARK  143  A    between atoms: _355  and  _356
REMARK  144  A    between atoms: _355  and  _358
REMARK  145  A    between atoms: _358  and  _359
REMARK  146  A    between atoms: _364  and  _365
REMARK  147  A    between atoms: _367  and  _369
REMARK  148  A    between atoms: _369  and  _370
REMARK  149  A    between atoms: _373  and  _375
REMARK  150  A    between atoms: _375  and  _376
REMARK  151  A    between atoms: _375  and  _378
REMARK  152  A    between atoms: _381  and  _383
REMARK  153  A    between atoms: _393  and  _396
REMARK  154  A    between atoms: _396  and  _397
REMARK  155  A    between atoms: _404  and  _405
REMARK  156  A    between atoms: _412  and  _414
REMARK  157  A    between atoms: _414  and  _415
REMARK  158  A    between atoms: _414  and  _417
REMARK  159  A    between atoms: _420  and  _422
REMARK  160  A    between atoms: _422  and  _423
REMARK  161  A    between atoms: _422  and  _425
REMARK  162  A    between atoms: _428  and  _429
REMARK  163  A    between atoms: _434  and  _436
REMARK  164  A    between atoms: _436  and  _437
REMARK  165  A    between atoms: _436  and  _439
REMARK  166  A    between atoms: _442  and  _444
REMARK  167  A    between atoms: _444  and  _445
REMARK  168  A    between atoms: _444  and  _447
REMARK  169  A    between atoms: _447  and  _448
REMARK  170  A    between atoms: _451  and  _453
REMARK  171  A    between atoms: _453  and  _454
REMARK  172  A    between atoms: _453  and  _456
REMARK  173  A    between atoms: _456  and  _457
REMARK  174  A    between atoms: _457  and  _458
REMARK  175  A    between atoms: _461  and  _463
REMARK  176  A    between atoms: _463  and  _464
REMARK  177  A    between atoms: _463  and  _466
REMARK  178  A    between atoms: _466  and  _467
REMARK  179  A    between atoms: _470  and  _471
REMARK  180  A    between atoms: _476  and  _478
REMARK  181  A    between atoms: _478  and  _479
REMARK  182  A    between atoms: _478  and  _481
REMARK  183  A    between atoms: _481  and  _482
REMARK  184  A    between atoms: _492  and  _494
REMARK  185  A    between atoms: _494  and  _495
REMARK  186  A    between atoms: _494  and  _497
REMARK  187  A    between atoms: _497  and  _498
REMARK  188  A    between atoms: _498  and  _499
REMARK  189  A    between atoms: _501  and  _503
REMARK  190  A    between atoms: _503  and  _504
REMARK  191  A    between atoms: _503  and  _506
REMARK  192  A    between atoms: _506  and  _507
REMARK  193  A    between atoms: _507  and  _508
REMARK                            x       y       z     vdW  Elec       q    Type
REMARK                         _______ _______ _______ _____ _____    ______ ____
ROOT
ATOM      1  O   HOH     1      15.874   2.659  14.365  0.00  0.00    +0.000 OA
ENDROOT
TORSDOF 0
REMARK  Name = ../refined-set-2016/1q54/1q54_pocket.pdb
REMARK  193 active torsions:
REMARK  status: ('A' for Active; 'I' for Inactive)
REMARK    1  A    between atoms: _1  and  _5
REMARK    2  A    between atoms: _5  and  _6
REMARK    3  A    between atoms: _5  and  _8
REMARK    4  A    between atoms: _8  and  _9
REMARK    5  A    between atoms: _9  and  _10
REMARK    6  A    between atoms: _13  and  _15
REMARK    7  A    between atoms: _15  and  _16
REMARK    8  A    between atoms: _15  and  _18
REMARK    9  A    between atoms: _18  and  _19
REMARK   10  A    between atoms: _24  and  _26
REMARK   11  A    between atoms: _26  and  _27
REMARK   12  A    between atoms: _26  and  _29
REMARK   13  A    between atoms: _32  and  _34
REMARK   14  A    between atoms: _34  and  _35
REMARK   15  A    between atoms: _34  and  _37
REMARK   16  A    between atoms: _37  and  _38
REMARK   17  A    between atoms: _38  and  _39
REMARK   18  A    between atoms: _39  and  _40
REMARK   19  A    between atoms: _40  and  _41
REMARK   20  A    between atoms: _45  and  _47
REMARK   21  A    between atoms: _47  and  _48
REMARK   22  A    between atoms: _47  and  _50
REMARK   23  A    between atoms: _50  and  _51
REMARK   24  A    between atoms: _55  and  MN_513
REMARK   25  A    between atoms: _56  and  _58
REMARK   26  A    between atoms: _58  and  _59
REMARK   27  A    between atoms: _58  and  _61
REMARK   28  A    between atoms: _61  and  _62
REMARK   29  A    between atoms: _66  and  MN_513
REMARK   30  A    between atoms: _67  and  _69
REMARK   31  A    between atoms: _69  and  _70
REMARK   32  A    between atoms: _69  and  _72
REMARK   33  A    between atoms: _72  and  _73
REMARK   34  A    between atoms: _76  and  _78
REMARK   35  A    between atoms: _78  and  _79
REMARK   36  A    between atoms: _82  and  _84
REMARK   37  A    between atoms: _84  and  _85
REMARK   38  A    between atoms: _84  and  _87
REMARK   39  A    between atoms: _87  and  _88
REMARK   40  A    between atoms: _94  and  _96
REMARK   41  A    between atoms: _96  and  _97
REMARK   42  A    between atoms: _96  and  _99
REMARK   43  A    between atoms: _99  and  _100
REMARK   44  A    between atoms: _102  and  _104
REMARK   45  A    between atoms: _104  and  _105
REMARK   46  A    between atoms: _104  and  _107
REMARK   47  A    between atoms: _107  and  _108
REMARK   48  A    between atoms: _110  and  _112
REMARK   49  A    between atoms: _112  and  _113
REMARK   50  A    between atoms: _112  and  _115
REMARK   51  A    between atoms: _115  and  _116
REMARK   52  A    between atoms: _126  and  _128
REMARK   53  A    between atoms: _128  and  _129
REMARK   54  A    between atoms: _128  and  _131
REMARK   55  A    between atoms: _131  and  _132
REMARK   56  A    between atoms: _135  and  _137
REMARK   57  A    between atoms: _137  and  _138
REMARK   58  A    between atoms: _137  and  _140
REMARK   59  A    between atoms: _140  and  _141
REMARK   60  A    between atoms: _141  and  _142
REMARK   61  A    between atoms: _142  and  _143
REMARK   62  A    between atoms: _152  and  _154
REMARK   63  A    between atoms: _154  and  _155
REMARK   64  A    between atoms: _158  and  _160
REMARK   65  A    between atoms: _160  and  _161
REMARK   66  A    between atoms: _160  and  _163
REMARK   67  A    between atoms: _163  and  _164
REMARK   68  A    between atoms: _164  and  _165
REMARK   69  A    between atoms: _165  and  _166
REMARK   70  A    between atoms: _166  and  _167
REMARK   71  A    between atoms: _171  and  _173
REMARK   72  A    between atoms: _173  and  _174
REMARK   73  A    between atoms: _173  and  _176
REMARK   74  A    between atoms: _176  and  _177
REMARK   75  A    between atoms: _177  and  _178
REMARK   76  A    between atoms: _178  and  _179
REMARK   77  A    between atoms: _179  and  _180
REMARK   78  A    between atoms: _184  and  _186
REMARK   79  A    between atoms: _186  and  _187
REMARK   80  A    between atoms: _190  and  _192
REMARK   81  A    between atoms: _192  and  _193
REMARK   82  A    between atoms: _192  and  _195
REMARK   83  A    between atoms: _195  and  _196
REMARK   84  A    between atoms: _206  and  _208
REMARK   85  A    between atoms: _208  and  _209
REMARK   86  A    between atoms: _208  and  _211
REMARK   87  A    between atoms: _211  and  _212
REMARK   88  A    between atoms: _215  and  _217
REMARK   89  A    between atoms: _217  and  _218
REMARK   90  A    between atoms: _217  and  _220
REMARK   91  A    between atoms: _220  and  _221
REMARK   92  A    between atoms: _226  and  _228
REMARK   93  A    between atoms: _228  and  _229
REMARK   94  A    between atoms: _228  and  _231
REMARK   95  A    between atoms: _231  and  _232
REMARK   96  A    between atoms: _234  and  _236
REMARK   97  A    between atoms: _236  and  _237
REMARK   98  A    between atoms: _236  and  _239
REMARK   99  A    between atoms: _242  and  _244
REMARK  100  A    between atoms: _244  and  _245
REMARK  101  A    between atoms: _248  and  _250
REMARK  102  A    between atoms: _250  and  _251
REMARK  103  A    between atoms: _253  and  _255
REMARK  104  A    between atoms: _255  and  _256
REMARK  105  A    between atoms: _255  and  _258
REMARK  106  A    between atoms: _258  and  _259
REMARK  107  A    between atoms: _263  and  MN_513
REMARK  108  A    between atoms: _265  and  _266
REMARK  109  A    between atoms: _271  and  _273
REMARK  110  A    between atoms: _273  and  _274
REMARK  111  A    between atoms: _273  and  _276
REMARK  112  A    between atoms: _276  and  _277
REMARK  113  A    between atoms: _277  and  _278
REMARK  114  A    between atoms: _283  and  _285
REMARK  115  A    between atoms: _285  and  _286
REMARK  116  A    between atoms: _285  and  _288
REMARK  117  A    between atoms: _288  and  _289
REMARK  118  A    between atoms: _289  and  _290
REMARK  119  A    between atoms: _290  and  _291
REMARK  120  A    between atoms: _300  and  _302
REMARK  121  A    between atoms: _302  and  _303
REMARK  122  A    between atoms: _302  and  _305
REMARK  123  A    between atoms: _305  and  _306
REMARK  124  A    between atoms: _306  and  _307
REMARK  125  A    between atoms: _307  and  _308
REMARK  126  A    between atoms: _317  and  _319
REMARK  127  A    between atoms: _319  and  _320
REMARK  128  A    between atoms: _319  and  _322
REMARK  129  A    between atoms: _322  and  _323
REMARK  130  A    between atoms: _328  and  _329
REMARK  131  A    between atoms: _331  and  _333
REMARK  132  A    between atoms: _333  and  _334
REMARK  133  A    between atoms: _333  and  _336
REMARK  134  A    between atoms: _336  and  _337
REMARK  135  A    between atoms: _337  and  _338
REMARK  136  A    between atoms: _338  and  _340
REMARK  137  A    between atoms: _340  and  MG_514
REMARK  138  A    between atoms: _341  and  _343
REMARK  139  A    between atoms: _343  and  _344
REMARK  140  A    between atoms: _343  and  _346
REMARK  141  A    between atoms: _346  and  _347
REMARK  142  A    between atoms: _353  and  _355
REMARK  143  A    between atoms: _355  and  _356
REMARK  144  A    between atoms: _355  and  _358
REMARK  145  A    between atoms: _358  and  _359
REMARK  146  A    between atoms: _364  and  _365
REMARK  147  A    between atoms: _367  and  _369
REMARK  148  A    between atoms: _369  and  _370
REMARK  149  A    between atoms: _373  and  _375
REMARK  150  A    between atoms: _375  and  _376
REMARK  151  A    between atoms: _375  and  _378
REMARK  152  A    between atoms: _381  and  _383
REMARK  153  A    between atoms: _393  and  _396
REMARK  154  A    between atoms: _396  and  _397
REMARK  155  A    between atoms: _404  and  _405
REMARK  156  A    between atoms: _412  and  _414
REMARK  157  A    between atoms: _414  and  _415
REMARK  158  A    between atoms: _414  and  _417
REMARK  159  A    between atoms: _420  and  _422
REMARK  160  A    between atoms: _422  and  _423
REMARK  161  A    between atoms: _422  and  _425
REMARK  162  A    between atoms: _428  and  _429
REMARK  163  A    between atoms: _434  and  _436
REMARK  164  A    between atoms: _436  and  _437
REMARK  165  A    between atoms: _436  and  _439
REMARK  166  A    between atoms: _442  and  _444
REMARK  167  A    between atoms: _444  and  _445
REMARK  168  A    between atoms: _444  and  _447
REMARK  169  A    between atoms: _447  and  _448
REMARK  170  A    between atoms: _451  and  _453
REMARK  171  A    between atoms: _453  and  _454
REMARK  172  A    between atoms: _453  and  _456
REMARK  173  A    between atoms: _456  and  _457
REMARK  174  A    between atoms: _457  and  _458
REMARK  175  A    between atoms: _461  and  _463
REMARK  176  A    between atoms: _463  and  _464
REMARK  177  A    between atoms: _463  and  _466
REMARK  178  A    between atoms: _466  and  _467
REMARK  179  A    between atoms: _470  and  _471
REMARK  180  A    between atoms: _476  and  _478
REMARK  181  A    between atoms: _478  and  _479
REMARK  182  A    between atoms: _478  and  _481
REMARK  183  A    between atoms: _481  and  _482
REMARK  184  A    between atoms: _492  and  _494
REMARK  185  A    between atoms: _494  and  _495
REMARK  186  A    between atoms: _494  and  _497
REMARK  187  A    between atoms: _497  and  _498
REMARK  188  A    between atoms: _498  and  _499
REMARK  189  A    between atoms: _501  and  _503
REMARK  190  A    between atoms: _503  and  _504
REMARK  191  A    between atoms: _503  and  _506
REMARK  192  A    between atoms: _506  and  _507
REMARK  193  A    between atoms: _507  and  _508
REMARK                            x       y       z     vdW  Elec       q    Type
REMARK                         _______ _______ _______ _____ _____    ______ ____
ROOT
ATOM      1  O   HOH     1      11.444   3.529   5.668  0.00  0.00    +0.000 OA
ENDROOT
TORSDOF 0
REMARK  Name = ../refined-set-2016/1q54/1q54_pocket.pdb
REMARK  193 active torsions:
REMARK  status: ('A' for Active; 'I' for Inactive)
REMARK    1  A    between atoms: _1  and  _5
REMARK    2  A    between atoms: _5  and  _6
REMARK    3  A    between atoms: _5  and  _8
REMARK    4  A    between atoms: _8  and  _9
REMARK    5  A    between atoms: _9  and  _10
REMARK    6  A    between atoms: _13  and  _15
REMARK    7  A    between atoms: _15  and  _16
REMARK    8  A    between atoms: _15  and  _18
REMARK    9  A    between atoms: _18  and  _19
REMARK   10  A    between atoms: _24  and  _26
REMARK   11  A    between atoms: _26  and  _27
REMARK   12  A    between atoms: _26  and  _29
REMARK   13  A    between atoms: _32  and  _34
REMARK   14  A    between atoms: _34  and  _35
REMARK   15  A    between atoms: _34  and  _37
REMARK   16  A    between atoms: _37  and  _38
REMARK   17  A    between atoms: _38  and  _39
REMARK   18  A    between atoms: _39  and  _40
REMARK   19  A    between atoms: _40  and  _41
REMARK   20  A    between atoms: _45  and  _47
REMARK   21  A    between atoms: _47  and  _48
REMARK   22  A    between atoms: _47  and  _50
REMARK   23  A    between atoms: _50  and  _51
REMARK   24  A    between atoms: _55  and  MN_513
REMARK   25  A    between atoms: _56  and  _58
REMARK   26  A    between atoms: _58  and  _59
REMARK   27  A    between atoms: _58  and  _61
REMARK   28  A    between atoms: _61  and  _62
REMARK   29  A    between atoms: _66  and  MN_513
REMARK   30  A    between atoms: _67  and  _69
REMARK   31  A    between atoms: _69  and  _70
REMARK   32  A    between atoms: _69  and  _72
REMARK   33  A    between atoms: _72  and  _73
REMARK   34  A    between atoms: _76  and  _78
REMARK   35  A    between atoms: _78  and  _79
REMARK   36  A    between atoms: _82  and  _84
REMARK   37  A    between atoms: _84  and  _85
REMARK   38  A    between atoms: _84  and  _87
REMARK   39  A    between atoms: _87  and  _88
REMARK   40  A    between atoms: _94  and  _96
REMARK   41  A    between atoms: _96  and  _97
REMARK   42  A    between atoms: _96  and  _99
REMARK   43  A    between atoms: _99  and  _100
REMARK   44  A    between atoms: _102  and  _104
REMARK   45  A    between atoms: _104  and  _105
REMARK   46  A    between atoms: _104  and  _107
REMARK   47  A    between atoms: _107  and  _108
REMARK   48  A    between atoms: _110  and  _112
REMARK   49  A    between atoms: _112  and  _113
REMARK   50  A    between atoms: _112  and  _115
REMARK   51  A    between atoms: _115  and  _116
REMARK   52  A    between atoms: _126  and  _128
REMARK   53  A    between atoms: _128  and  _129
REMARK   54  A    between atoms: _128  and  _131
REMARK   55  A    between atoms: _131  and  _132
REMARK   56  A    between atoms: _135  and  _137
REMARK   57  A    between atoms: _137  and  _138
REMARK   58  A    between atoms: _137  and  _140
REMARK   59  A    between atoms: _140  and  _141
REMARK   60  A    between atoms: _141  and  _142
REMARK   61  A    between atoms: _142  and  _143
REMARK   62  A    between atoms: _152  and  _154
REMARK   63  A    between atoms: _154  and  _155
REMARK   64  A    between atoms: _158  and  _160
REMARK   65  A    between atoms: _160  and  _161
REMARK   66  A    between atoms: _160  and  _163
REMARK   67  A    between atoms: _163  and  _164
REMARK   68  A    between atoms: _164  and  _165
REMARK   69  A    between atoms: _165  and  _166
REMARK   70  A    between atoms: _166  and  _167
REMARK   71  A    between atoms: _171  and  _173
REMARK   72  A    between atoms: _173  and  _174
REMARK   73  A    between atoms: _173  and  _176
REMARK   74  A    between atoms: _176  and  _177
REMARK   75  A    between atoms: _177  and  _178
REMARK   76  A    between atoms: _178  and  _179
REMARK   77  A    between atoms: _179  and  _180
REMARK   78  A    between atoms: _184  and  _186
REMARK   79  A    between atoms: _186  and  _187
REMARK   80  A    between atoms: _190  and  _192
REMARK   81  A    between atoms: _192  and  _193
REMARK   82  A    between atoms: _192  and  _195
REMARK   83  A    between atoms: _195  and  _196
REMARK   84  A    between atoms: _206  and  _208
REMARK   85  A    between atoms: _208  and  _209
REMARK   86  A    between atoms: _208  and  _211
REMARK   87  A    between atoms: _211  and  _212
REMARK   88  A    between atoms: _215  and  _217
REMARK   89  A    between atoms: _217  and  _218
REMARK   90  A    between atoms: _217  and  _220
REMARK   91  A    between atoms: _220  and  _221
REMARK   92  A    between atoms: _226  and  _228
REMARK   93  A    between atoms: _228  and  _229
REMARK   94  A    between atoms: _228  and  _231
REMARK   95  A    between atoms: _231  and  _232
REMARK   96  A    between atoms: _234  and  _236
REMARK   97  A    between atoms: _236  and  _237
REMARK   98  A    between atoms: _236  and  _239
REMARK   99  A    between atoms: _242  and  _244
REMARK  100  A    between atoms: _244  and  _245
REMARK  101  A    between atoms: _248  and  _250
REMARK  102  A    between atoms: _250  and  _251
REMARK  103  A    between atoms: _253  and  _255
REMARK  104  A    between atoms: _255  and  _256
REMARK  105  A    between atoms: _255  and  _258
REMARK  106  A    between atoms: _258  and  _259
REMARK  107  A    between atoms: _263  and  MN_513
REMARK  108  A    between atoms: _265  and  _266
REMARK  109  A    between atoms: _271  and  _273
REMARK  110  A    between atoms: _273  and  _274
REMARK  111  A    between atoms: _273  and  _276
REMARK  112  A    between atoms: _276  and  _277
REMARK  113  A    between atoms: _277  and  _278
REMARK  114  A    between atoms: _283  and  _285
REMARK  115  A    between atoms: _285  and  _286
REMARK  116  A    between atoms: _285  and  _288
REMARK  117  A    between atoms: _288  and  _289
REMARK  118  A    between atoms: _289  and  _290
REMARK  119  A    between atoms: _290  and  _291
REMARK  120  A    between atoms: _300  and  _302
REMARK  121  A    between atoms: _302  and  _303
REMARK  122  A    between atoms: _302  and  _305
REMARK  123  A    between atoms: _305  and  _306
REMARK  124  A    between atoms: _306  and  _307
REMARK  125  A    between atoms: _307  and  _308
REMARK  126  A    between atoms: _317  and  _319
REMARK  127  A    between atoms: _319  and  _320
REMARK  128  A    between atoms: _319  and  _322
REMARK  129  A    between atoms: _322  and  _323
REMARK  130  A    between atoms: _328  and  _329
REMARK  131  A    between atoms: _331  and  _333
REMARK  132  A    between atoms: _333  and  _334
REMARK  133  A    between atoms: _333  and  _336
REMARK  134  A    between atoms: _336  and  _337
REMARK  135  A    between atoms: _337  and  _338
REMARK  136  A    between atoms: _338  and  _340
REMARK  137  A    between atoms: _340  and  MG_514
REMARK  138  A    between atoms: _341  and  _343
REMARK  139  A    between atoms: _343  and  _344
REMARK  140  A    between atoms: _343  and  _346
REMARK  141  A    between atoms: _346  and  _347
REMARK  142  A    between atoms: _353  and  _355
REMARK  143  A    between atoms: _355  and  _356
REMARK  144  A    between atoms: _355  and  _358
REMARK  145  A    between atoms: _358  and  _359
REMARK  146  A    between atoms: _364  and  _365
REMARK  147  A    between atoms: _367  and  _369
REMARK  148  A    between atoms: _369  and  _370
REMARK  149  A    between atoms: _373  and  _375
REMARK  150  A    between atoms: _375  and  _376
REMARK  151  A    between atoms: _375  and  _378
REMARK  152  A    between atoms: _381  and  _383
REMARK  153  A    between atoms: _393  and  _396
REMARK  154  A    between atoms: _396  and  _397
REMARK  155  A    between atoms: _404  and  _405
REMARK  156  A    between atoms: _412  and  _414
REMARK  157  A    between atoms: _414  and  _415
REMARK  158  A    between atoms: _414  and  _417
REMARK  159  A    between atoms: _420  and  _422
REMARK  160  A    between atoms: _422  and  _423
REMARK  161  A    between atoms: _422  and  _425
REMARK  162  A    between atoms: _428  and  _429
REMARK  163  A    between atoms: _434  and  _436
REMARK  164  A    between atoms: _436  and  _437
REMARK  165  A    between atoms: _436  and  _439
REMARK  166  A    between atoms: _442  and  _444
REMARK  167  A    between atoms: _444  and  _445
REMARK  168  A    between atoms: _444  and  _447
REMARK  169  A    between atoms: _447  and  _448
REMARK  170  A    between atoms: _451  and  _453
REMARK  171  A    between atoms: _453  and  _454
REMARK  172  A    between atoms: _453  and  _456
REMARK  173  A    between atoms: _456  and  _457
REMARK  174  A    between atoms: _457  and  _458
REMARK  175  A    between atoms: _461  and  _463
REMARK  176  A    between atoms: _463  and  _464
REMARK  177  A    between atoms: _463  and  _466
REMARK  178  A    between atoms: _466  and  _467
REMARK  179  A    between atoms: _470  and  _471
REMARK  180  A    between atoms: _476  and  _478
REMARK  181  A    between atoms: _478  and  _479
REMARK  182  A    between atoms: _478  and  _481
REMARK  183  A    between atoms: _481  and  _482
REMARK  184  A    between atoms: _492  and  _494
REMARK  185  A    between atoms: _494  and  _495
REMARK  186  A    between atoms: _494  and  _497
REMARK  187  A    between atoms: _497  and  _498
REMARK  188  A    between atoms: _498  and  _499
REMARK  189  A    between atoms: _501  and  _503
REMARK  190  A    between atoms: _503  and  _504
REMARK  191  A    between atoms: _503  and  _506
REMARK  192  A    between atoms: _506  and  _507
REMARK  193  A    between atoms: _507  and  _508
REMARK                            x       y       z     vdW  Elec       q    Type
REMARK                         _______ _______ _______ _____ _____    ______ ____
ROOT
ATOM      1  O   HOH     1      14.380   3.486   6.608  0.00  0.00    +0.000 OA
ENDROOT
TORSDOF 0
REMARK  Name = ../refined-set-2016/1q54/1q54_pocket.pdb
REMARK  193 active torsions:
REMARK  status: ('A' for Active; 'I' for Inactive)
REMARK    1  A    between atoms: _1  and  _5
REMARK    2  A    between atoms: _5  and  _6
REMARK    3  A    between atoms: _5  and  _8
REMARK    4  A    between atoms: _8  and  _9
REMARK    5  A    between atoms: _9  and  _10
REMARK    6  A    between atoms: _13  and  _15
REMARK    7  A    between atoms: _15  and  _16
REMARK    8  A    between atoms: _15  and  _18
REMARK    9  A    between atoms: _18  and  _19
REMARK   10  A    between atoms: _24  and  _26
REMARK   11  A    between atoms: _26  and  _27
REMARK   12  A    between atoms: _26  and  _29
REMARK   13  A    between atoms: _32  and  _34
REMARK   14  A    between atoms: _34  and  _35
REMARK   15  A    between atoms: _34  and  _37
REMARK   16  A    between atoms: _37  and  _38
REMARK   17  A    between atoms: _38  and  _39
REMARK   18  A    between atoms: _39  and  _40
REMARK   19  A    between atoms: _40  and  _41
REMARK   20  A    between atoms: _45  and  _47
REMARK   21  A    between atoms: _47  and  _48
REMARK   22  A    between atoms: _47  and  _50
REMARK   23  A    between atoms: _50  and  _51
REMARK   24  A    between atoms: _55  and  MN_513
REMARK   25  A    between atoms: _56  and  _58
REMARK   26  A    between atoms: _58  and  _59
REMARK   27  A    between atoms: _58  and  _61
REMARK   28  A    between atoms: _61  and  _62
REMARK   29  A    between atoms: _66  and  MN_513
REMARK   30  A    between atoms: _67  and  _69
REMARK   31  A    between atoms: _69  and  _70
REMARK   32  A    between atoms: _69  and  _72
REMARK   33  A    between atoms: _72  and  _73
REMARK   34  A    between atoms: _76  and  _78
REMARK   35  A    between atoms: _78  and  _79
REMARK   36  A    between atoms: _82  and  _84
REMARK   37  A    between atoms: _84  and  _85
REMARK   38  A    between atoms: _84  and  _87
REMARK   39  A    between atoms: _87  and  _88
REMARK   40  A    between atoms: _94  and  _96
REMARK   41  A    between atoms: _96  and  _97
REMARK   42  A    between atoms: _96  and  _99
REMARK   43  A    between atoms: _99  and  _100
REMARK   44  A    between atoms: _102  and  _104
REMARK   45  A    between atoms: _104  and  _105
REMARK   46  A    between atoms: _104  and  _107
REMARK   47  A    between atoms: _107  and  _108
REMARK   48  A    between atoms: _110  and  _112
REMARK   49  A    between atoms: _112  and  _113
REMARK   50  A    between atoms: _112  and  _115
REMARK   51  A    between atoms: _115  and  _116
REMARK   52  A    between atoms: _126  and  _128
REMARK   53  A    between atoms: _128  and  _129
REMARK   54  A    between atoms: _128  and  _131
REMARK   55  A    between atoms: _131  and  _132
REMARK   56  A    between atoms: _135  and  _137
REMARK   57  A    between atoms: _137  and  _138
REMARK   58  A    between atoms: _137  and  _140
REMARK   59  A    between atoms: _140  and  _141
REMARK   60  A    between atoms: _141  and  _142
REMARK   61  A    between atoms: _142  and  _143
REMARK   62  A    between atoms: _152  and  _154
REMARK   63  A    between atoms: _154  and  _155
REMARK   64  A    between atoms: _158  and  _160
REMARK   65  A    between atoms: _160  and  _161
REMARK   66  A    between atoms: _160  and  _163
REMARK   67  A    between atoms: _163  and  _164
REMARK   68  A    between atoms: _164  and  _165
REMARK   69  A    between atoms: _165  and  _166
REMARK   70  A    between atoms: _166  and  _167
REMARK   71  A    between atoms: _171  and  _173
REMARK   72  A    between atoms: _173  and  _174
REMARK   73  A    between atoms: _173  and  _176
REMARK   74  A    between atoms: _176  and  _177
REMARK   75  A    between atoms: _177  and  _178
REMARK   76  A    between atoms: _178  and  _179
REMARK   77  A    between atoms: _179  and  _180
REMARK   78  A    between atoms: _184  and  _186
REMARK   79  A    between atoms: _186  and  _187
REMARK   80  A    between atoms: _190  and  _192
REMARK   81  A    between atoms: _192  and  _193
REMARK   82  A    between atoms: _192  and  _195
REMARK   83  A    between atoms: _195  and  _196
REMARK   84  A    between atoms: _206  and  _208
REMARK   85  A    between atoms: _208  and  _209
REMARK   86  A    between atoms: _208  and  _211
REMARK   87  A    between atoms: _211  and  _212
REMARK   88  A    between atoms: _215  and  _217
REMARK   89  A    between atoms: _217  and  _218
REMARK   90  A    between atoms: _217  and  _220
REMARK   91  A    between atoms: _220  and  _221
REMARK   92  A    between atoms: _226  and  _228
REMARK   93  A    between atoms: _228  and  _229
REMARK   94  A    between atoms: _228  and  _231
REMARK   95  A    between atoms: _231  and  _232
REMARK   96  A    between atoms: _234  and  _236
REMARK   97  A    between atoms: _236  and  _237
REMARK   98  A    between atoms: _236  and  _239
REMARK   99  A    between atoms: _242  and  _244
REMARK  100  A    between atoms: _244  and  _245
REMARK  101  A    between atoms: _248  and  _250
REMARK  102  A    between atoms: _250  and  _251
REMARK  103  A    between atoms: _253  and  _255
REMARK  104  A    between atoms: _255  and  _256
REMARK  105  A    between atoms: _255  and  _258
REMARK  106  A    between atoms: _258  and  _259
REMARK  107  A    between atoms: _263  and  MN_513
REMARK  108  A    between atoms: _265  and  _266
REMARK  109  A    between atoms: _271  and  _273
REMARK  110  A    between atoms: _273  and  _274
REMARK  111  A    between atoms: _273  and  _276
REMARK  112  A    between atoms: _276  and  _277
REMARK  113  A    between atoms: _277  and  _278
REMARK  114  A    between atoms: _283  and  _285
REMARK  115  A    between atoms: _285  and  _286
REMARK  116  A    between atoms: _285  and  _288
REMARK  117  A    between atoms: _288  and  _289
REMARK  118  A    between atoms: _289  and  _290
REMARK  119  A    between atoms: _290  and  _291
REMARK  120  A    between atoms: _300  and  _302
REMARK  121  A    between atoms: _302  and  _303
REMARK  122  A    between atoms: _302  and  _305
REMARK  123  A    between atoms: _305  and  _306
REMARK  124  A    between atoms: _306  and  _307
REMARK  125  A    between atoms: _307  and  _308
REMARK  126  A    between atoms: _317  and  _319
REMARK  127  A    between atoms: _319  and  _320
REMARK  128  A    between atoms: _319  and  _322
REMARK  129  A    between atoms: _322  and  _323
REMARK  130  A    between atoms: _328  and  _329
REMARK  131  A    between atoms: _331  and  _333
REMARK  132  A    between atoms: _333  and  _334
REMARK  133  A    between atoms: _333  and  _336
REMARK  134  A    between atoms: _336  and  _337
REMARK  135  A    between atoms: _337  and  _338
REMARK  136  A    between atoms: _338  and  _340
REMARK  137  A    between atoms: _340  and  MG_514
REMARK  138  A    between atoms: _341  and  _343
REMARK  139  A    between atoms: _343  and  _344
REMARK  140  A    between atoms: _343  and  _346
REMARK  141  A    between atoms: _346  and  _347
REMARK  142  A    between atoms: _353  and  _355
REMARK  143  A    between atoms: _355  and  _356
REMARK  144  A    between atoms: _355  and  _358
REMARK  145  A    between atoms: _358  and  _359
REMARK  146  A    between atoms: _364  and  _365
REMARK  147  A    between atoms: _367  and  _369
REMARK  148  A    between atoms: _369  and  _370
REMARK  149  A    between atoms: _373  and  _375
REMARK  150  A    between atoms: _375  and  _376
REMARK  151  A    between atoms: _375  and  _378
REMARK  152  A    between atoms: _381  and  _383
REMARK  153  A    between atoms: _393  and  _396
REMARK  154  A    between atoms: _396  and  _397
REMARK  155  A    between atoms: _404  and  _405
REMARK  156  A    between atoms: _412  and  _414
REMARK  157  A    between atoms: _414  and  _415
REMARK  158  A    between atoms: _414  and  _417
REMARK  159  A    between atoms: _420  and  _422
REMARK  160  A    between atoms: _422  and  _423
REMARK  161  A    between atoms: _422  and  _425
REMARK  162  A    between atoms: _428  and  _429
REMARK  163  A    between atoms: _434  and  _436
REMARK  164  A    between atoms: _436  and  _437
REMARK  165  A    between atoms: _436  and  _439
REMARK  166  A    between atoms: _442  and  _444
REMARK  167  A    between atoms: _444  and  _445
REMARK  168  A    between atoms: _444  and  _447
REMARK  169  A    between atoms: _447  and  _448
REMARK  170  A    between atoms: _451  and  _453
REMARK  171  A    between atoms: _453  and  _454
REMARK  172  A    between atoms: _453  and  _456
REMARK  173  A    between atoms: _456  and  _457
REMARK  174  A    between atoms: _457  and  _458
REMARK  175  A    between atoms: _461  and  _463
REMARK  176  A    between atoms: _463  and  _464
REMARK  177  A    between atoms: _463  and  _466
REMARK  178  A    between atoms: _466  and  _467
REMARK  179  A    between atoms: _470  and  _471
REMARK  180  A    between atoms: _476  and  _478
REMARK  181  A    between atoms: _478  and  _479
REMARK  182  A    between atoms: _478  and  _481
REMARK  183  A    between atoms: _481  and  _482
REMARK  184  A    between atoms: _492  and  _494
REMARK  185  A    between atoms: _494  and  _495
REMARK  186  A    between atoms: _494  and  _497
REMARK  187  A    between atoms: _497  and  _498
REMARK  188  A    between atoms: _498  and  _499
REMARK  189  A    between atoms: _501  and  _503
REMARK  190  A    between atoms: _503  and  _504
REMARK  191  A    between atoms: _503  and  _506
REMARK  192  A    between atoms: _506  and  _507
REMARK  193  A    between atoms: _507  and  _508
REMARK                            x       y       z     vdW  Elec       q    Type
REMARK                         _______ _______ _______ _____ _____    ______ ____
ROOT
ATOM      1  O   HOH     1      11.221   6.789   8.955  0.00  0.00    +0.000 OA
ENDROOT
TORSDOF 0
REMARK  Name = ../refined-set-2016/1q54/1q54_pocket.pdb
REMARK  193 active torsions:
REMARK  status: ('A' for Active; 'I' for Inactive)
REMARK    1  A    between atoms: _1  and  _5
REMARK    2  A    between atoms: _5  and  _6
REMARK    3  A    between atoms: _5  and  _8
REMARK    4  A    between atoms: _8  and  _9
REMARK    5  A    between atoms: _9  and  _10
REMARK    6  A    between atoms: _13  and  _15
REMARK    7  A    between atoms: _15  and  _16
REMARK    8  A    between atoms: _15  and  _18
REMARK    9  A    between atoms: _18  and  _19
REMARK   10  A    between atoms: _24  and  _26
REMARK   11  A    between atoms: _26  and  _27
REMARK   12  A    between atoms: _26  and  _29
REMARK   13  A    between atoms: _32  and  _34
REMARK   14  A    between atoms: _34  and  _35
REMARK   15  A    between atoms: _34  and  _37
REMARK   16  A    between atoms: _37  and  _38
REMARK   17  A    between atoms: _38  and  _39
REMARK   18  A    between atoms: _39  and  _40
REMARK   19  A    between atoms: _40  and  _41
REMARK   20  A    between atoms: _45  and  _47
REMARK   21  A    between atoms: _47  and  _48
REMARK   22  A    between atoms: _47  and  _50
REMARK   23  A    between atoms: _50  and  _51
REMARK   24  A    between atoms: _55  and  MN_513
REMARK   25  A    between atoms: _56  and  _58
REMARK   26  A    between atoms: _58  and  _59
REMARK   27  A    between atoms: _58  and  _61
REMARK   28  A    between atoms: _61  and  _62
REMARK   29  A    between atoms: _66  and  MN_513
REMARK   30  A    between atoms: _67  and  _69
REMARK   31  A    between atoms: _69  and  _70
REMARK   32  A    between atoms: _69  and  _72
REMARK   33  A    between atoms: _72  and  _73
REMARK   34  A    between atoms: _76  and  _78
REMARK   35  A    between atoms: _78  and  _79
REMARK   36  A    between atoms: _82  and  _84
REMARK   37  A    between atoms: _84  and  _85
REMARK   38  A    between atoms: _84  and  _87
REMARK   39  A    between atoms: _87  and  _88
REMARK   40  A    between atoms: _94  and  _96
REMARK   41  A    between atoms: _96  and  _97
REMARK   42  A    between atoms: _96  and  _99
REMARK   43  A    between atoms: _99  and  _100
REMARK   44  A    between atoms: _102  and  _104
REMARK   45  A    between atoms: _104  and  _105
REMARK   46  A    between atoms: _104  and  _107
REMARK   47  A    between atoms: _107  and  _108
REMARK   48  A    between atoms: _110  and  _112
REMARK   49  A    between atoms: _112  and  _113
REMARK   50  A    between atoms: _112  and  _115
REMARK   51  A    between atoms: _115  and  _116
REMARK   52  A    between atoms: _126  and  _128
REMARK   53  A    between atoms: _128  and  _129
REMARK   54  A    between atoms: _128  and  _131
REMARK   55  A    between atoms: _131  and  _132
REMARK   56  A    between atoms: _135  and  _137
REMARK   57  A    between atoms: _137  and  _138
REMARK   58  A    between atoms: _137  and  _140
REMARK   59  A    between atoms: _140  and  _141
REMARK   60  A    between atoms: _141  and  _142
REMARK   61  A    between atoms: _142  and  _143
REMARK   62  A    between atoms: _152  and  _154
REMARK   63  A    between atoms: _154  and  _155
REMARK   64  A    between atoms: _158  and  _160
REMARK   65  A    between atoms: _160  and  _161
REMARK   66  A    between atoms: _160  and  _163
REMARK   67  A    between atoms: _163  and  _164
REMARK   68  A    between atoms: _164  and  _165
REMARK   69  A    between atoms: _165  and  _166
REMARK   70  A    between atoms: _166  and  _167
REMARK   71  A    between atoms: _171  and  _173
REMARK   72  A    between atoms: _173  and  _174
REMARK   73  A    between atoms: _173  and  _176
REMARK   74  A    between atoms: _176  and  _177
REMARK   75  A    between atoms: _177  and  _178
REMARK   76  A    between atoms: _178  and  _179
REMARK   77  A    between atoms: _179  and  _180
REMARK   78  A    between atoms: _184  and  _186
REMARK   79  A    between atoms: _186  and  _187
REMARK   80  A    between atoms: _190  and  _192
REMARK   81  A    between atoms: _192  and  _193
REMARK   82  A    between atoms: _192  and  _195
REMARK   83  A    between atoms: _195  and  _196
REMARK   84  A    between atoms: _206  and  _208
REMARK   85  A    between atoms: _208  and  _209
REMARK   86  A    between atoms: _208  and  _211
REMARK   87  A    between atoms: _211  and  _212
REMARK   88  A    between atoms: _215  and  _217
REMARK   89  A    between atoms: _217  and  _218
REMARK   90  A    between atoms: _217  and  _220
REMARK   91  A    between atoms: _220  and  _221
REMARK   92  A    between atoms: _226  and  _228
REMARK   93  A    between atoms: _228  and  _229
REMARK   94  A    between atoms: _228  and  _231
REMARK   95  A    between atoms: _231  and  _232
REMARK   96  A    between atoms: _234  and  _236
REMARK   97  A    between atoms: _236  and  _237
REMARK   98  A    between atoms: _236  and  _239
REMARK   99  A    between atoms: _242  and  _244
REMARK  100  A    between atoms: _244  and  _245
REMARK  101  A    between atoms: _248  and  _250
REMARK  102  A    between atoms: _250  and  _251
REMARK  103  A    between atoms: _253  and  _255
REMARK  104  A    between atoms: _255  and  _256
REMARK  105  A    between atoms: _255  and  _258
REMARK  106  A    between atoms: _258  and  _259
REMARK  107  A    between atoms: _263  and  MN_513
REMARK  108  A    between atoms: _265  and  _266
REMARK  109  A    between atoms: _271  and  _273
REMARK  110  A    between atoms: _273  and  _274
REMARK  111  A    between atoms: _273  and  _276
REMARK  112  A    between atoms: _276  and  _277
REMARK  113  A    between atoms: _277  and  _278
REMARK  114  A    between atoms: _283  and  _285
REMARK  115  A    between atoms: _285  and  _286
REMARK  116  A    between atoms: _285  and  _288
REMARK  117  A    between atoms: _288  and  _289
REMARK  118  A    between atoms: _289  and  _290
REMARK  119  A    between atoms: _290  and  _291
REMARK  120  A    between atoms: _300  and  _302
REMARK  121  A    between atoms: _302  and  _303
REMARK  122  A    between atoms: _302  and  _305
REMARK  123  A    between atoms: _305  and  _306
REMARK  124  A    between atoms: _306  and  _307
REMARK  125  A    between atoms: _307  and  _308
REMARK  126  A    between atoms: _317  and  _319
REMARK  127  A    between atoms: _319  and  _320
REMARK  128  A    between atoms: _319  and  _322
REMARK  129  A    between atoms: _322  and  _323
REMARK  130  A    between atoms: _328  and  _329
REMARK  131  A    between atoms: _331  and  _333
REMARK  132  A    between atoms: _333  and  _334
REMARK  133  A    between atoms: _333  and  _336
REMARK  134  A    between atoms: _336  and  _337
REMARK  135  A    between atoms: _337  and  _338
REMARK  136  A    between atoms: _338  and  _340
REMARK  137  A    between atoms: _340  and  MG_514
REMARK  138  A    between atoms: _341  and  _343
REMARK  139  A    between atoms: _343  and  _344
REMARK  140  A    between atoms: _343  and  _346
REMARK  141  A    between atoms: _346  and  _347
REMARK  142  A    between atoms: _353  and  _355
REMARK  143  A    between atoms: _355  and  _356
REMARK  144  A    between atoms: _355  and  _358
REMARK  145  A    between atoms: _358  and  _359
REMARK  146  A    between atoms: _364  and  _365
REMARK  147  A    between atoms: _367  and  _369
REMARK  148  A    between atoms: _369  and  _370
REMARK  149  A    between atoms: _373  and  _375
REMARK  150  A    between atoms: _375  and  _376
REMARK  151  A    between atoms: _375  and  _378
REMARK  152  A    between atoms: _381  and  _383
REMARK  153  A    between atoms: _393  and  _396
REMARK  154  A    between atoms: _396  and  _397
REMARK  155  A    between atoms: _404  and  _405
REMARK  156  A    between atoms: _412  and  _414
REMARK  157  A    between atoms: _414  and  _415
REMARK  158  A    between atoms: _414  and  _417
REMARK  159  A    between atoms: _420  and  _422
REMARK  160  A    between atoms: _422  and  _423
REMARK  161  A    between atoms: _422  and  _425
REMARK  162  A    between atoms: _428  and  _429
REMARK  163  A    between atoms: _434  and  _436
REMARK  164  A    between atoms: _436  and  _437
REMARK  165  A    between atoms: _436  and  _439
REMARK  166  A    between atoms: _442  and  _444
REMARK  167  A    between atoms: _444  and  _445
REMARK  168  A    between atoms: _444  and  _447
REMARK  169  A    between atoms: _447  and  _448
REMARK  170  A    between atoms: _451  and  _453
REMARK  171  A    between atoms: _453  and  _454
REMARK  172  A    between atoms: _453  and  _456
REMARK  173  A    between atoms: _456  and  _457
REMARK  174  A    between atoms: _457  and  _458
REMARK  175  A    between atoms: _461  and  _463
REMARK  176  A    between atoms: _463  and  _464
REMARK  177  A    between atoms: _463  and  _466
REMARK  178  A    between atoms: _466  and  _467
REMARK  179  A    between atoms: _470  and  _471
REMARK  180  A    between atoms: _476  and  _478
REMARK  181  A    between atoms: _478  and  _479
REMARK  182  A    between atoms: _478  and  _481
REMARK  183  A    between atoms: _481  and  _482
REMARK  184  A    between atoms: _492  and  _494
REMARK  185  A    between atoms: _494  and  _495
REMARK  186  A    between atoms: _494  and  _497
REMARK  187  A    between atoms: _497  and  _498
REMARK  188  A    between atoms: _498  and  _499
REMARK  189  A    between atoms: _501  and  _503
REMARK  190  A    between atoms: _503  and  _504
REMARK  191  A    between atoms: _503  and  _506
REMARK  192  A    between atoms: _506  and  _507
REMARK  193  A    between atoms: _507  and  _508
REMARK                            x       y       z     vdW  Elec       q    Type
REMARK                         _______ _______ _______ _____ _____    ______ ____
ROOT
ATOM      1  O   HOH     1      14.084   5.013  16.373  0.00  0.00    +0.000 OA
ENDROOT
TORSDOF 0
REMARK  Name = ../refined-set-2016/1q54/1q54_pocket.pdb
REMARK  193 active torsions:
REMARK  status: ('A' for Active; 'I' for Inactive)
REMARK    1  A    between atoms: _1  and  _5
REMARK    2  A    between atoms: _5  and  _6
REMARK    3  A    between atoms: _5  and  _8
REMARK    4  A    between atoms: _8  and  _9
REMARK    5  A    between atoms: _9  and  _10
REMARK    6  A    between atoms: _13  and  _15
REMARK    7  A    between atoms: _15  and  _16
REMARK    8  A    between atoms: _15  and  _18
REMARK    9  A    between atoms: _18  and  _19
REMARK   10  A    between atoms: _24  and  _26
REMARK   11  A    between atoms: _26  and  _27
REMARK   12  A    between atoms: _26  and  _29
REMARK   13  A    between atoms: _32  and  _34
REMARK   14  A    between atoms: _34  and  _35
REMARK   15  A    between atoms: _34  and  _37
REMARK   16  A    between atoms: _37  and  _38
REMARK   17  A    between atoms: _38  and  _39
REMARK   18  A    between atoms: _39  and  _40
REMARK   19  A    between atoms: _40  and  _41
REMARK   20  A    between atoms: _45  and  _47
REMARK   21  A    between atoms: _47  and  _48
REMARK   22  A    between atoms: _47  and  _50
REMARK   23  A    between atoms: _50  and  _51
REMARK   24  A    between atoms: _55  and  MN_513
REMARK   25  A    between atoms: _56  and  _58
REMARK   26  A    between atoms: _58  and  _59
REMARK   27  A    between atoms: _58  and  _61
REMARK   28  A    between atoms: _61  and  _62
REMARK   29  A    between atoms: _66  and  MN_513
REMARK   30  A    between atoms: _67  and  _69
REMARK   31  A    between atoms: _69  and  _70
REMARK   32  A    between atoms: _69  and  _72
REMARK   33  A    between atoms: _72  and  _73
REMARK   34  A    between atoms: _76  and  _78
REMARK   35  A    between atoms: _78  and  _79
REMARK   36  A    between atoms: _82  and  _84
REMARK   37  A    between atoms: _84  and  _85
REMARK   38  A    between atoms: _84  and  _87
REMARK   39  A    between atoms: _87  and  _88
REMARK   40  A    between atoms: _94  and  _96
REMARK   41  A    between atoms: _96  and  _97
REMARK   42  A    between atoms: _96  and  _99
REMARK   43  A    between atoms: _99  and  _100
REMARK   44  A    between atoms: _102  and  _104
REMARK   45  A    between atoms: _104  and  _105
REMARK   46  A    between atoms: _104  and  _107
REMARK   47  A    between atoms: _107  and  _108
REMARK   48  A    between atoms: _110  and  _112
REMARK   49  A    between atoms: _112  and  _113
REMARK   50  A    between atoms: _112  and  _115
REMARK   51  A    between atoms: _115  and  _116
REMARK   52  A    between atoms: _126  and  _128
REMARK   53  A    between atoms: _128  and  _129
REMARK   54  A    between atoms: _128  and  _131
REMARK   55  A    between atoms: _131  and  _132
REMARK   56  A    between atoms: _135  and  _137
REMARK   57  A    between atoms: _137  and  _138
REMARK   58  A    between atoms: _137  and  _140
REMARK   59  A    between atoms: _140  and  _141
REMARK   60  A    between atoms: _141  and  _142
REMARK   61  A    between atoms: _142  and  _143
REMARK   62  A    between atoms: _152  and  _154
REMARK   63  A    between atoms: _154  and  _155
REMARK   64  A    between atoms: _158  and  _160
REMARK   65  A    between atoms: _160  and  _161
REMARK   66  A    between atoms: _160  and  _163
REMARK   67  A    between atoms: _163  and  _164
REMARK   68  A    between atoms: _164  and  _165
REMARK   69  A    between atoms: _165  and  _166
REMARK   70  A    between atoms: _166  and  _167
REMARK   71  A    between atoms: _171  and  _173
REMARK   72  A    between atoms: _173  and  _174
REMARK   73  A    between atoms: _173  and  _176
REMARK   74  A    between atoms: _176  and  _177
REMARK   75  A    between atoms: _177  and  _178
REMARK   76  A    between atoms: _178  and  _179
REMARK   77  A    between atoms: _179  and  _180
REMARK   78  A    between atoms: _184  and  _186
REMARK   79  A    between atoms: _186  and  _187
REMARK   80  A    between atoms: _190  and  _192
REMARK   81  A    between atoms: _192  and  _193
REMARK   82  A    between atoms: _192  and  _195
REMARK   83  A    between atoms: _195  and  _196
REMARK   84  A    between atoms: _206  and  _208
REMARK   85  A    between atoms: _208  and  _209
REMARK   86  A    between atoms: _208  and  _211
REMARK   87  A    between atoms: _211  and  _212
REMARK   88  A    between atoms: _215  and  _217
REMARK   89  A    between atoms: _217  and  _218
REMARK   90  A    between atoms: _217  and  _220
REMARK   91  A    between atoms: _220  and  _221
REMARK   92  A    between atoms: _226  and  _228
REMARK   93  A    between atoms: _228  and  _229
REMARK   94  A    between atoms: _228  and  _231
REMARK   95  A    between atoms: _231  and  _232
REMARK   96  A    between atoms: _234  and  _236
REMARK   97  A    between atoms: _236  and  _237
REMARK   98  A    between atoms: _236  and  _239
REMARK   99  A    between atoms: _242  and  _244
REMARK  100  A    between atoms: _244  and  _245
REMARK  101  A    between atoms: _248  and  _250
REMARK  102  A    between atoms: _250  and  _251
REMARK  103  A    between atoms: _253  and  _255
REMARK  104  A    between atoms: _255  and  _256
REMARK  105  A    between atoms: _255  and  _258
REMARK  106  A    between atoms: _258  and  _259
REMARK  107  A    between atoms: _263  and  MN_513
REMARK  108  A    between atoms: _265  and  _266
REMARK  109  A    between atoms: _271  and  _273
REMARK  110  A    between atoms: _273  and  _274
REMARK  111  A    between atoms: _273  and  _276
REMARK  112  A    between atoms: _276  and  _277
REMARK  113  A    between atoms: _277  and  _278
REMARK  114  A    between atoms: _283  and  _285
REMARK  115  A    between atoms: _285  and  _286
REMARK  116  A    between atoms: _285  and  _288
REMARK  117  A    between atoms: _288  and  _289
REMARK  118  A    between atoms: _289  and  _290
REMARK  119  A    between atoms: _290  and  _291
REMARK  120  A    between atoms: _300  and  _302
REMARK  121  A    between atoms: _302  and  _303
REMARK  122  A    between atoms: _302  and  _305
REMARK  123  A    between atoms: _305  and  _306
REMARK  124  A    between atoms: _306  and  _307
REMARK  125  A    between atoms: _307  and  _308
REMARK  126  A    between atoms: _317  and  _319
REMARK  127  A    between atoms: _319  and  _320
REMARK  128  A    between atoms: _319  and  _322
REMARK  129  A    between atoms: _322  and  _323
REMARK  130  A    between atoms: _328  and  _329
REMARK  131  A    between atoms: _331  and  _333
REMARK  132  A    between atoms: _333  and  _334
REMARK  133  A    between atoms: _333  and  _336
REMARK  134  A    between atoms: _336  and  _337
REMARK  135  A    between atoms: _337  and  _338
REMARK  136  A    between atoms: _338  and  _340
REMARK  137  A    between atoms: _340  and  MG_514
REMARK  138  A    between atoms: _341  and  _343
REMARK  139  A    between atoms: _343  and  _344
REMARK  140  A    between atoms: _343  and  _346
REMARK  141  A    between atoms: _346  and  _347
REMARK  142  A    between atoms: _353  and  _355
REMARK  143  A    between atoms: _355  and  _356
REMARK  144  A    between atoms: _355  and  _358
REMARK  145  A    between atoms: _358  and  _359
REMARK  146  A    between atoms: _364  and  _365
REMARK  147  A    between atoms: _367  and  _369
REMARK  148  A    between atoms: _369  and  _370
REMARK  149  A    between atoms: _373  and  _375
REMARK  150  A    between atoms: _375  and  _376
REMARK  151  A    between atoms: _375  and  _378
REMARK  152  A    between atoms: _381  and  _383
REMARK  153  A    between atoms: _393  and  _396
REMARK  154  A    between atoms: _396  and  _397
REMARK  155  A    between atoms: _404  and  _405
REMARK  156  A    between atoms: _412  and  _414
REMARK  157  A    between atoms: _414  and  _415
REMARK  158  A    between atoms: _414  and  _417
REMARK  159  A    between atoms: _420  and  _422
REMARK  160  A    between atoms: _422  and  _423
REMARK  161  A    between atoms: _422  and  _425
REMARK  162  A    between atoms: _428  and  _429
REMARK  163  A    between atoms: _434  and  _436
REMARK  164  A    between atoms: _436  and  _437
REMARK  165  A    between atoms: _436  and  _439
REMARK  166  A    between atoms: _442  and  _444
REMARK  167  A    between atoms: _444  and  _445
REMARK  168  A    between atoms: _444  and  _447
REMARK  169  A    between atoms: _447  and  _448
REMARK  170  A    between atoms: _451  and  _453
REMARK  171  A    between atoms: _453  and  _454
REMARK  172  A    between atoms: _453  and  _456
REMARK  173  A    between atoms: _456  and  _457
REMARK  174  A    between atoms: _457  and  _458
REMARK  175  A    between atoms: _461  and  _463
REMARK  176  A    between atoms: _463  and  _464
REMARK  177  A    between atoms: _463  and  _466
REMARK  178  A    between atoms: _466  and  _467
REMARK  179  A    between atoms: _470  and  _471
REMARK  180  A    between atoms: _476  and  _478
REMARK  181  A    between atoms: _478  and  _479
REMARK  182  A    between atoms: _478  and  _481
REMARK  183  A    between atoms: _481  and  _482
REMARK  184  A    between atoms: _492  and  _494
REMARK  185  A    between atoms: _494  and  _495
REMARK  186  A    between atoms: _494  and  _497
REMARK  187  A    between atoms: _497  and  _498
REMARK  188  A    between atoms: _498  and  _499
REMARK  189  A    between atoms: _501  and  _503
REMARK  190  A    between atoms: _503  and  _504
REMARK  191  A    between atoms: _503  and  _506
REMARK  192  A    between atoms: _506  and  _507
REMARK  193  A    between atoms: _507  and  _508
REMARK                            x       y       z     vdW  Elec       q    Type
REMARK                         _______ _______ _______ _____ _____    ______ ____
ROOT
ATOM      1  O   HOH     1      15.892   3.216  17.189  0.00  0.00    +0.000 OA
ENDROOT
TORSDOF 0
REMARK  Name = ../refined-set-2016/1q54/1q54_pocket.pdb
REMARK  193 active torsions:
REMARK  status: ('A' for Active; 'I' for Inactive)
REMARK    1  A    between atoms: _1  and  _5
REMARK    2  A    between atoms: _5  and  _6
REMARK    3  A    between atoms: _5  and  _8
REMARK    4  A    between atoms: _8  and  _9
REMARK    5  A    between atoms: _9  and  _10
REMARK    6  A    between atoms: _13  and  _15
REMARK    7  A    between atoms: _15  and  _16
REMARK    8  A    between atoms: _15  and  _18
REMARK    9  A    between atoms: _18  and  _19
REMARK   10  A    between atoms: _24  and  _26
REMARK   11  A    between atoms: _26  and  _27
REMARK   12  A    between atoms: _26  and  _29
REMARK   13  A    between atoms: _32  and  _34
REMARK   14  A    between atoms: _34  and  _35
REMARK   15  A    between atoms: _34  and  _37
REMARK   16  A    between atoms: _37  and  _38
REMARK   17  A    between atoms: _38  and  _39
REMARK   18  A    between atoms: _39  and  _40
REMARK   19  A    between atoms: _40  and  _41
REMARK   20  A    between atoms: _45  and  _47
REMARK   21  A    between atoms: _47  and  _48
REMARK   22  A    between atoms: _47  and  _50
REMARK   23  A    between atoms: _50  and  _51
REMARK   24  A    between atoms: _55  and  MN_513
REMARK   25  A    between atoms: _56  and  _58
REMARK   26  A    between atoms: _58  and  _59
REMARK   27  A    between atoms: _58  and  _61
REMARK   28  A    between atoms: _61  and  _62
REMARK   29  A    between atoms: _66  and  MN_513
REMARK   30  A    between atoms: _67  and  _69
REMARK   31  A    between atoms: _69  and  _70
REMARK   32  A    between atoms: _69  and  _72
REMARK   33  A    between atoms: _72  and  _73
REMARK   34  A    between atoms: _76  and  _78
REMARK   35  A    between atoms: _78  and  _79
REMARK   36  A    between atoms: _82  and  _84
REMARK   37  A    between atoms: _84  and  _85
REMARK   38  A    between atoms: _84  and  _87
REMARK   39  A    between atoms: _87  and  _88
REMARK   40  A    between atoms: _94  and  _96
REMARK   41  A    between atoms: _96  and  _97
REMARK   42  A    between atoms: _96  and  _99
REMARK   43  A    between atoms: _99  and  _100
REMARK   44  A    between atoms: _102  and  _104
REMARK   45  A    between atoms: _104  and  _105
REMARK   46  A    between atoms: _104  and  _107
REMARK   47  A    between atoms: _107  and  _108
REMARK   48  A    between atoms: _110  and  _112
REMARK   49  A    between atoms: _112  and  _113
REMARK   50  A    between atoms: _112  and  _115
REMARK   51  A    between atoms: _115  and  _116
REMARK   52  A    between atoms: _126  and  _128
REMARK   53  A    between atoms: _128  and  _129
REMARK   54  A    between atoms: _128  and  _131
REMARK   55  A    between atoms: _131  and  _132
REMARK   56  A    between atoms: _135  and  _137
REMARK   57  A    between atoms: _137  and  _138
REMARK   58  A    between atoms: _137  and  _140
REMARK   59  A    between atoms: _140  and  _141
REMARK   60  A    between atoms: _141  and  _142
REMARK   61  A    between atoms: _142  and  _143
REMARK   62  A    between atoms: _152  and  _154
REMARK   63  A    between atoms: _154  and  _155
REMARK   64  A    between atoms: _158  and  _160
REMARK   65  A    between atoms: _160  and  _161
REMARK   66  A    between atoms: _160  and  _163
REMARK   67  A    between atoms: _163  and  _164
REMARK   68  A    between atoms: _164  and  _165
REMARK   69  A    between atoms: _165  and  _166
REMARK   70  A    between atoms: _166  and  _167
REMARK   71  A    between atoms: _171  and  _173
REMARK   72  A    between atoms: _173  and  _174
REMARK   73  A    between atoms: _173  and  _176
REMARK   74  A    between atoms: _176  and  _177
REMARK   75  A    between atoms: _177  and  _178
REMARK   76  A    between atoms: _178  and  _179
REMARK   77  A    between atoms: _179  and  _180
REMARK   78  A    between atoms: _184  and  _186
REMARK   79  A    between atoms: _186  and  _187
REMARK   80  A    between atoms: _190  and  _192
REMARK   81  A    between atoms: _192  and  _193
REMARK   82  A    between atoms: _192  and  _195
REMARK   83  A    between atoms: _195  and  _196
REMARK   84  A    between atoms: _206  and  _208
REMARK   85  A    between atoms: _208  and  _209
REMARK   86  A    between atoms: _208  and  _211
REMARK   87  A    between atoms: _211  and  _212
REMARK   88  A    between atoms: _215  and  _217
REMARK   89  A    between atoms: _217  and  _218
REMARK   90  A    between atoms: _217  and  _220
REMARK   91  A    between atoms: _220  and  _221
REMARK   92  A    between atoms: _226  and  _228
REMARK   93  A    between atoms: _228  and  _229
REMARK   94  A    between atoms: _228  and  _231
REMARK   95  A    between atoms: _231  and  _232
REMARK   96  A    between atoms: _234  and  _236
REMARK   97  A    between atoms: _236  and  _237
REMARK   98  A    between atoms: _236  and  _239
REMARK   99  A    between atoms: _242  and  _244
REMARK  100  A    between atoms: _244  and  _245
REMARK  101  A    between atoms: _248  and  _250
REMARK  102  A    between atoms: _250  and  _251
REMARK  103  A    between atoms: _253  and  _255
REMARK  104  A    between atoms: _255  and  _256
REMARK  105  A    between atoms: _255  and  _258
REMARK  106  A    between atoms: _258  and  _259
REMARK  107  A    between atoms: _263  and  MN_513
REMARK  108  A    between atoms: _265  and  _266
REMARK  109  A    between atoms: _271  and  _273
REMARK  110  A    between atoms: _273  and  _274
REMARK  111  A    between atoms: _273  and  _276
REMARK  112  A    between atoms: _276  and  _277
REMARK  113  A    between atoms: _277  and  _278
REMARK  114  A    between atoms: _283  and  _285
REMARK  115  A    between atoms: _285  and  _286
REMARK  116  A    between atoms: _285  and  _288
REMARK  117  A    between atoms: _288  and  _289
REMARK  118  A    between atoms: _289  and  _290
REMARK  119  A    between atoms: _290  and  _291
REMARK  120  A    between atoms: _300  and  _302
REMARK  121  A    between atoms: _302  and  _303
REMARK  122  A    between atoms: _302  and  _305
REMARK  123  A    between atoms: _305  and  _306
REMARK  124  A    between atoms: _306  and  _307
REMARK  125  A    between atoms: _307  and  _308
REMARK  126  A    between atoms: _317  and  _319
REMARK  127  A    between atoms: _319  and  _320
REMARK  128  A    between atoms: _319  and  _322
REMARK  129  A    between atoms: _322  and  _323
REMARK  130  A    between atoms: _328  and  _329
REMARK  131  A    between atoms: _331  and  _333
REMARK  132  A    between atoms: _333  and  _334
REMARK  133  A    between atoms: _333  and  _336
REMARK  134  A    between atoms: _336  and  _337
REMARK  135  A    between atoms: _337  and  _338
REMARK  136  A    between atoms: _338  and  _340
REMARK  137  A    between atoms: _340  and  MG_514
REMARK  138  A    between atoms: _341  and  _343
REMARK  139  A    between atoms: _343  and  _344
REMARK  140  A    between atoms: _343  and  _346
REMARK  141  A    between atoms: _346  and  _347
REMARK  142  A    between atoms: _353  and  _355
REMARK  143  A    between atoms: _355  and  _356
REMARK  144  A    between atoms: _355  and  _358
REMARK  145  A    between atoms: _358  and  _359
REMARK  146  A    between atoms: _364  and  _365
REMARK  147  A    between atoms: _367  and  _369
REMARK  148  A    between atoms: _369  and  _370
REMARK  149  A    between atoms: _373  and  _375
REMARK  150  A    between atoms: _375  and  _376
REMARK  151  A    between atoms: _375  and  _378
REMARK  152  A    between atoms: _381  and  _383
REMARK  153  A    between atoms: _393  and  _396
REMARK  154  A    between atoms: _396  and  _397
REMARK  155  A    between atoms: _404  and  _405
REMARK  156  A    between atoms: _412  and  _414
REMARK  157  A    between atoms: _414  and  _415
REMARK  158  A    between atoms: _414  and  _417
REMARK  159  A    between atoms: _420  and  _422
REMARK  160  A    between atoms: _422  and  _423
REMARK  161  A    between atoms: _422  and  _425
REMARK  162  A    between atoms: _428  and  _429
REMARK  163  A    between atoms: _434  and  _436
REMARK  164  A    between atoms: _436  and  _437
REMARK  165  A    between atoms: _436  and  _439
REMARK  166  A    between atoms: _442  and  _444
REMARK  167  A    between atoms: _444  and  _445
REMARK  168  A    between atoms: _444  and  _447
REMARK  169  A    between atoms: _447  and  _448
REMARK  170  A    between atoms: _451  and  _453
REMARK  171  A    between atoms: _453  and  _454
REMARK  172  A    between atoms: _453  and  _456
REMARK  173  A    between atoms: _456  and  _457
REMARK  174  A    between atoms: _457  and  _458
REMARK  175  A    between atoms: _461  and  _463
REMARK  176  A    between atoms: _463  and  _464
REMARK  177  A    between atoms: _463  and  _466
REMARK  178  A    between atoms: _466  and  _467
REMARK  179  A    between atoms: _470  and  _471
REMARK  180  A    between atoms: _476  and  _478
REMARK  181  A    between atoms: _478  and  _479
REMARK  182  A    between atoms: _478  and  _481
REMARK  183  A    between atoms: _481  and  _482
REMARK  184  A    between atoms: _492  and  _494
REMARK  185  A    between atoms: _494  and  _495
REMARK  186  A    between atoms: _494  and  _497
REMARK  187  A    between atoms: _497  and  _498
REMARK  188  A    between atoms: _498  and  _499
REMARK  189  A    between atoms: _501  and  _503
REMARK  190  A    between atoms: _503  and  _504
REMARK  191  A    between atoms: _503  and  _506
REMARK  192  A    between atoms: _506  and  _507
REMARK  193  A    between atoms: _507  and  _508
REMARK                            x       y       z     vdW  Elec       q    Type
REMARK                         _______ _______ _______ _____ _____    ______ ____
ROOT
ATOM      1  O   HOH     1       6.960   0.666  11.925  0.00  0.00    +0.000 OA
ENDROOT
TORSDOF 0
REMARK  Name = ../refined-set-2016/1q54/1q54_pocket.pdb
REMARK  193 active torsions:
REMARK  status: ('A' for Active; 'I' for Inactive)
REMARK    1  A    between atoms: _1  and  _5
REMARK    2  A    between atoms: _5  and  _6
REMARK    3  A    between atoms: _5  and  _8
REMARK    4  A    between atoms: _8  and  _9
REMARK    5  A    between atoms: _9  and  _10
REMARK    6  A    between atoms: _13  and  _15
REMARK    7  A    between atoms: _15  and  _16
REMARK    8  A    between atoms: _15  and  _18
REMARK    9  A    between atoms: _18  and  _19
REMARK   10  A    between atoms: _24  and  _26
REMARK   11  A    between atoms: _26  and  _27
REMARK   12  A    between atoms: _26  and  _29
REMARK   13  A    between atoms: _32  and  _34
REMARK   14  A    between atoms: _34  and  _35
REMARK   15  A    between atoms: _34  and  _37
REMARK   16  A    between atoms: _37  and  _38
REMARK   17  A    between atoms: _38  and  _39
REMARK   18  A    between atoms: _39  and  _40
REMARK   19  A    between atoms: _40  and  _41
REMARK   20  A    between atoms: _45  and  _47
REMARK   21  A    between atoms: _47  and  _48
REMARK   22  A    between atoms: _47  and  _50
REMARK   23  A    between atoms: _50  and  _51
REMARK   24  A    between atoms: _55  and  MN_513
REMARK   25  A    between atoms: _56  and  _58
REMARK   26  A    between atoms: _58  and  _59
REMARK   27  A    between atoms: _58  and  _61
REMARK   28  A    between atoms: _61  and  _62
REMARK   29  A    between atoms: _66  and  MN_513
REMARK   30  A    between atoms: _67  and  _69
REMARK   31  A    between atoms: _69  and  _70
REMARK   32  A    between atoms: _69  and  _72
REMARK   33  A    between atoms: _72  and  _73
REMARK   34  A    between atoms: _76  and  _78
REMARK   35  A    between atoms: _78  and  _79
REMARK   36  A    between atoms: _82  and  _84
REMARK   37  A    between atoms: _84  and  _85
REMARK   38  A    between atoms: _84  and  _87
REMARK   39  A    between atoms: _87  and  _88
REMARK   40  A    between atoms: _94  and  _96
REMARK   41  A    between atoms: _96  and  _97
REMARK   42  A    between atoms: _96  and  _99
REMARK   43  A    between atoms: _99  and  _100
REMARK   44  A    between atoms: _102  and  _104
REMARK   45  A    between atoms: _104  and  _105
REMARK   46  A    between atoms: _104  and  _107
REMARK   47  A    between atoms: _107  and  _108
REMARK   48  A    between atoms: _110  and  _112
REMARK   49  A    between atoms: _112  and  _113
REMARK   50  A    between atoms: _112  and  _115
REMARK   51  A    between atoms: _115  and  _116
REMARK   52  A    between atoms: _126  and  _128
REMARK   53  A    between atoms: _128  and  _129
REMARK   54  A    between atoms: _128  and  _131
REMARK   55  A    between atoms: _131  and  _132
REMARK   56  A    between atoms: _135  and  _137
REMARK   57  A    between atoms: _137  and  _138
REMARK   58  A    between atoms: _137  and  _140
REMARK   59  A    between atoms: _140  and  _141
REMARK   60  A    between atoms: _141  and  _142
REMARK   61  A    between atoms: _142  and  _143
REMARK   62  A    between atoms: _152  and  _154
REMARK   63  A    between atoms: _154  and  _155
REMARK   64  A    between atoms: _158  and  _160
REMARK   65  A    between atoms: _160  and  _161
REMARK   66  A    between atoms: _160  and  _163
REMARK   67  A    between atoms: _163  and  _164
REMARK   68  A    between atoms: _164  and  _165
REMARK   69  A    between atoms: _165  and  _166
REMARK   70  A    between atoms: _166  and  _167
REMARK   71  A    between atoms: _171  and  _173
REMARK   72  A    between atoms: _173  and  _174
REMARK   73  A    between atoms: _173  and  _176
REMARK   74  A    between atoms: _176  and  _177
REMARK   75  A    between atoms: _177  and  _178
REMARK   76  A    between atoms: _178  and  _179
REMARK   77  A    between atoms: _179  and  _180
REMARK   78  A    between atoms: _184  and  _186
REMARK   79  A    between atoms: _186  and  _187
REMARK   80  A    between atoms: _190  and  _192
REMARK   81  A    between atoms: _192  and  _193
REMARK   82  A    between atoms: _192  and  _195
REMARK   83  A    between atoms: _195  and  _196
REMARK   84  A    between atoms: _206  and  _208
REMARK   85  A    between atoms: _208  and  _209
REMARK   86  A    between atoms: _208  and  _211
REMARK   87  A    between atoms: _211  and  _212
REMARK   88  A    between atoms: _215  and  _217
REMARK   89  A    between atoms: _217  and  _218
REMARK   90  A    between atoms: _217  and  _220
REMARK   91  A    between atoms: _220  and  _221
REMARK   92  A    between atoms: _226  and  _228
REMARK   93  A    between atoms: _228  and  _229
REMARK   94  A    between atoms: _228  and  _231
REMARK   95  A    between atoms: _231  and  _232
REMARK   96  A    between atoms: _234  and  _236
REMARK   97  A    between atoms: _236  and  _237
REMARK   98  A    between atoms: _236  and  _239
REMARK   99  A    between atoms: _242  and  _244
REMARK  100  A    between atoms: _244  and  _245
REMARK  101  A    between atoms: _248  and  _250
REMARK  102  A    between atoms: _250  and  _251
REMARK  103  A    between atoms: _253  and  _255
REMARK  104  A    between atoms: _255  and  _256
REMARK  105  A    between atoms: _255  and  _258
REMARK  106  A    between atoms: _258  and  _259
REMARK  107  A    between atoms: _263  and  MN_513
REMARK  108  A    between atoms: _265  and  _266
REMARK  109  A    between atoms: _271  and  _273
REMARK  110  A    between atoms: _273  and  _274
REMARK  111  A    between atoms: _273  and  _276
REMARK  112  A    between atoms: _276  and  _277
REMARK  113  A    between atoms: _277  and  _278
REMARK  114  A    between atoms: _283  and  _285
REMARK  115  A    between atoms: _285  and  _286
REMARK  116  A    between atoms: _285  and  _288
REMARK  117  A    between atoms: _288  and  _289
REMARK  118  A    between atoms: _289  and  _290
REMARK  119  A    between atoms: _290  and  _291
REMARK  120  A    between atoms: _300  and  _302
REMARK  121  A    between atoms: _302  and  _303
REMARK  122  A    between atoms: _302  and  _305
REMARK  123  A    between atoms: _305  and  _306
REMARK  124  A    between atoms: _306  and  _307
REMARK  125  A    between atoms: _307  and  _308
REMARK  126  A    between atoms: _317  and  _319
REMARK  127  A    between atoms: _319  and  _320
REMARK  128  A    between atoms: _319  and  _322
REMARK  129  A    between atoms: _322  and  _323
REMARK  130  A    between atoms: _328  and  _329
REMARK  131  A    between atoms: _331  and  _333
REMARK  132  A    between atoms: _333  and  _334
REMARK  133  A    between atoms: _333  and  _336
REMARK  134  A    between atoms: _336  and  _337
REMARK  135  A    between atoms: _337  and  _338
REMARK  136  A    between atoms: _338  and  _340
REMARK  137  A    between atoms: _340  and  MG_514
REMARK  138  A    between atoms: _341  and  _343
REMARK  139  A    between atoms: _343  and  _344
REMARK  140  A    between atoms: _343  and  _346
REMARK  141  A    between atoms: _346  and  _347
REMARK  142  A    between atoms: _353  and  _355
REMARK  143  A    between atoms: _355  and  _356
REMARK  144  A    between atoms: _355  and  _358
REMARK  145  A    between atoms: _358  and  _359
REMARK  146  A    between atoms: _364  and  _365
REMARK  147  A    between atoms: _367  and  _369
REMARK  148  A    between atoms: _369  and  _370
REMARK  149  A    between atoms: _373  and  _375
REMARK  150  A    between atoms: _375  and  _376
REMARK  151  A    between atoms: _375  and  _378
REMARK  152  A    between atoms: _381  and  _383
REMARK  153  A    between atoms: _393  and  _396
REMARK  154  A    between atoms: _396  and  _397
REMARK  155  A    between atoms: _404  and  _405
REMARK  156  A    between atoms: _412  and  _414
REMARK  157  A    between atoms: _414  and  _415
REMARK  158  A    between atoms: _414  and  _417
REMARK  159  A    between atoms: _420  and  _422
REMARK  160  A    between atoms: _422  and  _423
REMARK  161  A    between atoms: _422  and  _425
REMARK  162  A    between atoms: _428  and  _429
REMARK  163  A    between atoms: _434  and  _436
REMARK  164  A    between atoms: _436  and  _437
REMARK  165  A    between atoms: _436  and  _439
REMARK  166  A    between atoms: _442  and  _444
REMARK  167  A    between atoms: _444  and  _445
REMARK  168  A    between atoms: _444  and  _447
REMARK  169  A    between atoms: _447  and  _448
REMARK  170  A    between atoms: _451  and  _453
REMARK  171  A    between atoms: _453  and  _454
REMARK  172  A    between atoms: _453  and  _456
REMARK  173  A    between atoms: _456  and  _457
REMARK  174  A    between atoms: _457  and  _458
REMARK  175  A    between atoms: _461  and  _463
REMARK  176  A    between atoms: _463  and  _464
REMARK  177  A    between atoms: _463  and  _466
REMARK  178  A    between atoms: _466  and  _467
REMARK  179  A    between atoms: _470  and  _471
REMARK  180  A    between atoms: _476  and  _478
REMARK  181  A    between atoms: _478  and  _479
REMARK  182  A    between atoms: _478  and  _481
REMARK  183  A    between atoms: _481  and  _482
REMARK  184  A    between atoms: _492  and  _494
REMARK  185  A    between atoms: _494  and  _495
REMARK  186  A    between atoms: _494  and  _497
REMARK  187  A    between atoms: _497  and  _498
REMARK  188  A    between atoms: _498  and  _499
REMARK  189  A    between atoms: _501  and  _503
REMARK  190  A    between atoms: _503  and  _504
REMARK  191  A    between atoms: _503  and  _506
REMARK  192  A    between atoms: _506  and  _507
REMARK  193  A    between atoms: _507  and  _508
REMARK                            x       y       z     vdW  Elec       q    Type
REMARK                         _______ _______ _______ _____ _____    ______ ____
ROOT
ATOM      1  O   HOH     1      10.424   4.254   7.723  0.00  0.00    +0.000 OA
ENDROOT
TORSDOF 0
REMARK  Name = ../refined-set-2016/1q54/1q54_pocket.pdb
REMARK  193 active torsions:
REMARK  status: ('A' for Active; 'I' for Inactive)
REMARK    1  A    between atoms: _1  and  _5
REMARK    2  A    between atoms: _5  and  _6
REMARK    3  A    between atoms: _5  and  _8
REMARK    4  A    between atoms: _8  and  _9
REMARK    5  A    between atoms: _9  and  _10
REMARK    6  A    between atoms: _13  and  _15
REMARK    7  A    between atoms: _15  and  _16
REMARK    8  A    between atoms: _15  and  _18
REMARK    9  A    between atoms: _18  and  _19
REMARK   10  A    between atoms: _24  and  _26
REMARK   11  A    between atoms: _26  and  _27
REMARK   12  A    between atoms: _26  and  _29
REMARK   13  A    between atoms: _32  and  _34
REMARK   14  A    between atoms: _34  and  _35
REMARK   15  A    between atoms: _34  and  _37
REMARK   16  A    between atoms: _37  and  _38
REMARK   17  A    between atoms: _38  and  _39
REMARK   18  A    between atoms: _39  and  _40
REMARK   19  A    between atoms: _40  and  _41
REMARK   20  A    between atoms: _45  and  _47
REMARK   21  A    between atoms: _47  and  _48
REMARK   22  A    between atoms: _47  and  _50
REMARK   23  A    between atoms: _50  and  _51
REMARK   24  A    between atoms: _55  and  MN_513
REMARK   25  A    between atoms: _56  and  _58
REMARK   26  A    between atoms: _58  and  _59
REMARK   27  A    between atoms: _58  and  _61
REMARK   28  A    between atoms: _61  and  _62
REMARK   29  A    between atoms: _66  and  MN_513
REMARK   30  A    between atoms: _67  and  _69
REMARK   31  A    between atoms: _69  and  _70
REMARK   32  A    between atoms: _69  and  _72
REMARK   33  A    between atoms: _72  and  _73
REMARK   34  A    between atoms: _76  and  _78
REMARK   35  A    between atoms: _78  and  _79
REMARK   36  A    between atoms: _82  and  _84
REMARK   37  A    between atoms: _84  and  _85
REMARK   38  A    between atoms: _84  and  _87
REMARK   39  A    between atoms: _87  and  _88
REMARK   40  A    between atoms: _94  and  _96
REMARK   41  A    between atoms: _96  and  _97
REMARK   42  A    between atoms: _96  and  _99
REMARK   43  A    between atoms: _99  and  _100
REMARK   44  A    between atoms: _102  and  _104
REMARK   45  A    between atoms: _104  and  _105
REMARK   46  A    between atoms: _104  and  _107
REMARK   47  A    between atoms: _107  and  _108
REMARK   48  A    between atoms: _110  and  _112
REMARK   49  A    between atoms: _112  and  _113
REMARK   50  A    between atoms: _112  and  _115
REMARK   51  A    between atoms: _115  and  _116
REMARK   52  A    between atoms: _126  and  _128
REMARK   53  A    between atoms: _128  and  _129
REMARK   54  A    between atoms: _128  and  _131
REMARK   55  A    between atoms: _131  and  _132
REMARK   56  A    between atoms: _135  and  _137
REMARK   57  A    between atoms: _137  and  _138
REMARK   58  A    between atoms: _137  and  _140
REMARK   59  A    between atoms: _140  and  _141
REMARK   60  A    between atoms: _141  and  _142
REMARK   61  A    between atoms: _142  and  _143
REMARK   62  A    between atoms: _152  and  _154
REMARK   63  A    between atoms: _154  and  _155
REMARK   64  A    between atoms: _158  and  _160
REMARK   65  A    between atoms: _160  and  _161
REMARK   66  A    between atoms: _160  and  _163
REMARK   67  A    between atoms: _163  and  _164
REMARK   68  A    between atoms: _164  and  _165
REMARK   69  A    between atoms: _165  and  _166
REMARK   70  A    between atoms: _166  and  _167
REMARK   71  A    between atoms: _171  and  _173
REMARK   72  A    between atoms: _173  and  _174
REMARK   73  A    between atoms: _173  and  _176
REMARK   74  A    between atoms: _176  and  _177
REMARK   75  A    between atoms: _177  and  _178
REMARK   76  A    between atoms: _178  and  _179
REMARK   77  A    between atoms: _179  and  _180
REMARK   78  A    between atoms: _184  and  _186
REMARK   79  A    between atoms: _186  and  _187
REMARK   80  A    between atoms: _190  and  _192
REMARK   81  A    between atoms: _192  and  _193
REMARK   82  A    between atoms: _192  and  _195
REMARK   83  A    between atoms: _195  and  _196
REMARK   84  A    between atoms: _206  and  _208
REMARK   85  A    between atoms: _208  and  _209
REMARK   86  A    between atoms: _208  and  _211
REMARK   87  A    between atoms: _211  and  _212
REMARK   88  A    between atoms: _215  and  _217
REMARK   89  A    between atoms: _217  and  _218
REMARK   90  A    between atoms: _217  and  _220
REMARK   91  A    between atoms: _220  and  _221
REMARK   92  A    between atoms: _226  and  _228
REMARK   93  A    between atoms: _228  and  _229
REMARK   94  A    between atoms: _228  and  _231
REMARK   95  A    between atoms: _231  and  _232
REMARK   96  A    between atoms: _234  and  _236
REMARK   97  A    between atoms: _236  and  _237
REMARK   98  A    between atoms: _236  and  _239
REMARK   99  A    between atoms: _242  and  _244
REMARK  100  A    between atoms: _244  and  _245
REMARK  101  A    between atoms: _248  and  _250
REMARK  102  A    between atoms: _250  and  _251
REMARK  103  A    between atoms: _253  and  _255
REMARK  104  A    between atoms: _255  and  _256
REMARK  105  A    between atoms: _255  and  _258
REMARK  106  A    between atoms: _258  and  _259
REMARK  107  A    between atoms: _263  and  MN_513
REMARK  108  A    between atoms: _265  and  _266
REMARK  109  A    between atoms: _271  and  _273
REMARK  110  A    between atoms: _273  and  _274
REMARK  111  A    between atoms: _273  and  _276
REMARK  112  A    between atoms: _276  and  _277
REMARK  113  A    between atoms: _277  and  _278
REMARK  114  A    between atoms: _283  and  _285
REMARK  115  A    between atoms: _285  and  _286
REMARK  116  A    between atoms: _285  and  _288
REMARK  117  A    between atoms: _288  and  _289
REMARK  118  A    between atoms: _289  and  _290
REMARK  119  A    between atoms: _290  and  _291
REMARK  120  A    between atoms: _300  and  _302
REMARK  121  A    between atoms: _302  and  _303
REMARK  122  A    between atoms: _302  and  _305
REMARK  123  A    between atoms: _305  and  _306
REMARK  124  A    between atoms: _306  and  _307
REMARK  125  A    between atoms: _307  and  _308
REMARK  126  A    between atoms: _317  and  _319
REMARK  127  A    between atoms: _319  and  _320
REMARK  128  A    between atoms: _319  and  _322
REMARK  129  A    between atoms: _322  and  _323
REMARK  130  A    between atoms: _328  and  _329
REMARK  131  A    between atoms: _331  and  _333
REMARK  132  A    between atoms: _333  and  _334
REMARK  133  A    between atoms: _333  and  _336
REMARK  134  A    between atoms: _336  and  _337
REMARK  135  A    between atoms: _337  and  _338
REMARK  136  A    between atoms: _338  and  _340
REMARK  137  A    between atoms: _340  and  MG_514
REMARK  138  A    between atoms: _341  and  _343
REMARK  139  A    between atoms: _343  and  _344
REMARK  140  A    between atoms: _343  and  _346
REMARK  141  A    between atoms: _346  and  _347
REMARK  142  A    between atoms: _353  and  _355
REMARK  143  A    between atoms: _355  and  _356
REMARK  144  A    between atoms: _355  and  _358
REMARK  145  A    between atoms: _358  and  _359
REMARK  146  A    between atoms: _364  and  _365
REMARK  147  A    between atoms: _367  and  _369
REMARK  148  A    between atoms: _369  and  _370
REMARK  149  A    between atoms: _373  and  _375
REMARK  150  A    between atoms: _375  and  _376
REMARK  151  A    between atoms: _375  and  _378
REMARK  152  A    between atoms: _381  and  _383
REMARK  153  A    between atoms: _393  and  _396
REMARK  154  A    between atoms: _396  and  _397
REMARK  155  A    between atoms: _404  and  _405
REMARK  156  A    between atoms: _412  and  _414
REMARK  157  A    between atoms: _414  and  _415
REMARK  158  A    between atoms: _414  and  _417
REMARK  159  A    between atoms: _420  and  _422
REMARK  160  A    between atoms: _422  and  _423
REMARK  161  A    between atoms: _422  and  _425
REMARK  162  A    between atoms: _428  and  _429
REMARK  163  A    between atoms: _434  and  _436
REMARK  164  A    between atoms: _436  and  _437
REMARK  165  A    between atoms: _436  and  _439
REMARK  166  A    between atoms: _442  and  _444
REMARK  167  A    between atoms: _444  and  _445
REMARK  168  A    between atoms: _444  and  _447
REMARK  169  A    between atoms: _447  and  _448
REMARK  170  A    between atoms: _451  and  _453
REMARK  171  A    between atoms: _453  and  _454
REMARK  172  A    between atoms: _453  and  _456
REMARK  173  A    between atoms: _456  and  _457
REMARK  174  A    between atoms: _457  and  _458
REMARK  175  A    between atoms: _461  and  _463
REMARK  176  A    between atoms: _463  and  _464
REMARK  177  A    between atoms: _463  and  _466
REMARK  178  A    between atoms: _466  and  _467
REMARK  179  A    between atoms: _470  and  _471
REMARK  180  A    between atoms: _476  and  _478
REMARK  181  A    between atoms: _478  and  _479
REMARK  182  A    between atoms: _478  and  _481
REMARK  183  A    between atoms: _481  and  _482
REMARK  184  A    between atoms: _492  and  _494
REMARK  185  A    between atoms: _494  and  _495
REMARK  186  A    between atoms: _494  and  _497
REMARK  187  A    between atoms: _497  and  _498
REMARK  188  A    between atoms: _498  and  _499
REMARK  189  A    between atoms: _501  and  _503
REMARK  190  A    between atoms: _503  and  _504
REMARK  191  A    between atoms: _503  and  _506
REMARK  192  A    between atoms: _506  and  _507
REMARK  193  A    between atoms: _507  and  _508
REMARK                            x       y       z     vdW  Elec       q    Type
REMARK                         _______ _______ _______ _____ _____    ______ ____
ROOT
ATOM      1  O   HOH     1      13.446   5.801   8.248  0.00  0.00    +0.000 OA
ENDROOT
TORSDOF 0
REMARK  Name = ../refined-set-2016/1q54/1q54_pocket.pdb
REMARK  193 active torsions:
REMARK  status: ('A' for Active; 'I' for Inactive)
REMARK    1  A    between atoms: _1  and  _5
REMARK    2  A    between atoms: _5  and  _6
REMARK    3  A    between atoms: _5  and  _8
REMARK    4  A    between atoms: _8  and  _9
REMARK    5  A    between atoms: _9  and  _10
REMARK    6  A    between atoms: _13  and  _15
REMARK    7  A    between atoms: _15  and  _16
REMARK    8  A    between atoms: _15  and  _18
REMARK    9  A    between atoms: _18  and  _19
REMARK   10  A    between atoms: _24  and  _26
REMARK   11  A    between atoms: _26  and  _27
REMARK   12  A    between atoms: _26  and  _29
REMARK   13  A    between atoms: _32  and  _34
REMARK   14  A    between atoms: _34  and  _35
REMARK   15  A    between atoms: _34  and  _37
REMARK   16  A    between atoms: _37  and  _38
REMARK   17  A    between atoms: _38  and  _39
REMARK   18  A    between atoms: _39  and  _40
REMARK   19  A    between atoms: _40  and  _41
REMARK   20  A    between atoms: _45  and  _47
REMARK   21  A    between atoms: _47  and  _48
REMARK   22  A    between atoms: _47  and  _50
REMARK   23  A    between atoms: _50  and  _51
REMARK   24  A    between atoms: _55  and  MN_513
REMARK   25  A    between atoms: _56  and  _58
REMARK   26  A    between atoms: _58  and  _59
REMARK   27  A    between atoms: _58  and  _61
REMARK   28  A    between atoms: _61  and  _62
REMARK   29  A    between atoms: _66  and  MN_513
REMARK   30  A    between atoms: _67  and  _69
REMARK   31  A    between atoms: _69  and  _70
REMARK   32  A    between atoms: _69  and  _72
REMARK   33  A    between atoms: _72  and  _73
REMARK   34  A    between atoms: _76  and  _78
REMARK   35  A    between atoms: _78  and  _79
REMARK   36  A    between atoms: _82  and  _84
REMARK   37  A    between atoms: _84  and  _85
REMARK   38  A    between atoms: _84  and  _87
REMARK   39  A    between atoms: _87  and  _88
REMARK   40  A    between atoms: _94  and  _96
REMARK   41  A    between atoms: _96  and  _97
REMARK   42  A    between atoms: _96  and  _99
REMARK   43  A    between atoms: _99  and  _100
REMARK   44  A    between atoms: _102  and  _104
REMARK   45  A    between atoms: _104  and  _105
REMARK   46  A    between atoms: _104  and  _107
REMARK   47  A    between atoms: _107  and  _108
REMARK   48  A    between atoms: _110  and  _112
REMARK   49  A    between atoms: _112  and  _113
REMARK   50  A    between atoms: _112  and  _115
REMARK   51  A    between atoms: _115  and  _116
REMARK   52  A    between atoms: _126  and  _128
REMARK   53  A    between atoms: _128  and  _129
REMARK   54  A    between atoms: _128  and  _131
REMARK   55  A    between atoms: _131  and  _132
REMARK   56  A    between atoms: _135  and  _137
REMARK   57  A    between atoms: _137  and  _138
REMARK   58  A    between atoms: _137  and  _140
REMARK   59  A    between atoms: _140  and  _141
REMARK   60  A    between atoms: _141  and  _142
REMARK   61  A    between atoms: _142  and  _143
REMARK   62  A    between atoms: _152  and  _154
REMARK   63  A    between atoms: _154  and  _155
REMARK   64  A    between atoms: _158  and  _160
REMARK   65  A    between atoms: _160  and  _161
REMARK   66  A    between atoms: _160  and  _163
REMARK   67  A    between atoms: _163  and  _164
REMARK   68  A    between atoms: _164  and  _165
REMARK   69  A    between atoms: _165  and  _166
REMARK   70  A    between atoms: _166  and  _167
REMARK   71  A    between atoms: _171  and  _173
REMARK   72  A    between atoms: _173  and  _174
REMARK   73  A    between atoms: _173  and  _176
REMARK   74  A    between atoms: _176  and  _177
REMARK   75  A    between atoms: _177  and  _178
REMARK   76  A    between atoms: _178  and  _179
REMARK   77  A    between atoms: _179  and  _180
REMARK   78  A    between atoms: _184  and  _186
REMARK   79  A    between atoms: _186  and  _187
REMARK   80  A    between atoms: _190  and  _192
REMARK   81  A    between atoms: _192  and  _193
REMARK   82  A    between atoms: _192  and  _195
REMARK   83  A    between atoms: _195  and  _196
REMARK   84  A    between atoms: _206  and  _208
REMARK   85  A    between atoms: _208  and  _209
REMARK   86  A    between atoms: _208  and  _211
REMARK   87  A    between atoms: _211  and  _212
REMARK   88  A    between atoms: _215  and  _217
REMARK   89  A    between atoms: _217  and  _218
REMARK   90  A    between atoms: _217  and  _220
REMARK   91  A    between atoms: _220  and  _221
REMARK   92  A    between atoms: _226  and  _228
REMARK   93  A    between atoms: _228  and  _229
REMARK   94  A    between atoms: _228  and  _231
REMARK   95  A    between atoms: _231  and  _232
REMARK   96  A    between atoms: _234  and  _236
REMARK   97  A    between atoms: _236  and  _237
REMARK   98  A    between atoms: _236  and  _239
REMARK   99  A    between atoms: _242  and  _244
REMARK  100  A    between atoms: _244  and  _245
REMARK  101  A    between atoms: _248  and  _250
REMARK  102  A    between atoms: _250  and  _251
REMARK  103  A    between atoms: _253  and  _255
REMARK  104  A    between atoms: _255  and  _256
REMARK  105  A    between atoms: _255  and  _258
REMARK  106  A    between atoms: _258  and  _259
REMARK  107  A    between atoms: _263  and  MN_513
REMARK  108  A    between atoms: _265  and  _266
REMARK  109  A    between atoms: _271  and  _273
REMARK  110  A    between atoms: _273  and  _274
REMARK  111  A    between atoms: _273  and  _276
REMARK  112  A    between atoms: _276  and  _277
REMARK  113  A    between atoms: _277  and  _278
REMARK  114  A    between atoms: _283  and  _285
REMARK  115  A    between atoms: _285  and  _286
REMARK  116  A    between atoms: _285  and  _288
REMARK  117  A    between atoms: _288  and  _289
REMARK  118  A    between atoms: _289  and  _290
REMARK  119  A    between atoms: _290  and  _291
REMARK  120  A    between atoms: _300  and  _302
REMARK  121  A    between atoms: _302  and  _303
REMARK  122  A    between atoms: _302  and  _305
REMARK  123  A    between atoms: _305  and  _306
REMARK  124  A    between atoms: _306  and  _307
REMARK  125  A    between atoms: _307  and  _308
REMARK  126  A    between atoms: _317  and  _319
REMARK  127  A    between atoms: _319  and  _320
REMARK  128  A    between atoms: _319  and  _322
REMARK  129  A    between atoms: _322  and  _323
REMARK  130  A    between atoms: _328  and  _329
REMARK  131  A    between atoms: _331  and  _333
REMARK  132  A    between atoms: _333  and  _334
REMARK  133  A    between atoms: _333  and  _336
REMARK  134  A    between atoms: _336  and  _337
REMARK  135  A    between atoms: _337  and  _338
REMARK  136  A    between atoms: _338  and  _340
REMARK  137  A    between atoms: _340  and  MG_514
REMARK  138  A    between atoms: _341  and  _343
REMARK  139  A    between atoms: _343  and  _344
REMARK  140  A    between atoms: _343  and  _346
REMARK  141  A    between atoms: _346  and  _347
REMARK  142  A    between atoms: _353  and  _355
REMARK  143  A    between atoms: _355  and  _356
REMARK  144  A    between atoms: _355  and  _358
REMARK  145  A    between atoms: _358  and  _359
REMARK  146  A    between atoms: _364  and  _365
REMARK  147  A    between atoms: _367  and  _369
REMARK  148  A    between atoms: _369  and  _370
REMARK  149  A    between atoms: _373  and  _375
REMARK  150  A    between atoms: _375  and  _376
REMARK  151  A    between atoms: _375  and  _378
REMARK  152  A    between atoms: _381  and  _383
REMARK  153  A    between atoms: _393  and  _396
REMARK  154  A    between atoms: _396  and  _397
REMARK  155  A    between atoms: _404  and  _405
REMARK  156  A    between atoms: _412  and  _414
REMARK  157  A    between atoms: _414  and  _415
REMARK  158  A    between atoms: _414  and  _417
REMARK  159  A    between atoms: _420  and  _422
REMARK  160  A    between atoms: _422  and  _423
REMARK  161  A    between atoms: _422  and  _425
REMARK  162  A    between atoms: _428  and  _429
REMARK  163  A    between atoms: _434  and  _436
REMARK  164  A    between atoms: _436  and  _437
REMARK  165  A    between atoms: _436  and  _439
REMARK  166  A    between atoms: _442  and  _444
REMARK  167  A    between atoms: _444  and  _445
REMARK  168  A    between atoms: _444  and  _447
REMARK  169  A    between atoms: _447  and  _448
REMARK  170  A    between atoms: _451  and  _453
REMARK  171  A    between atoms: _453  and  _454
REMARK  172  A    between atoms: _453  and  _456
REMARK  173  A    between atoms: _456  and  _457
REMARK  174  A    between atoms: _457  and  _458
REMARK  175  A    between atoms: _461  and  _463
REMARK  176  A    between atoms: _463  and  _464
REMARK  177  A    between atoms: _463  and  _466
REMARK  178  A    between atoms: _466  and  _467
REMARK  179  A    between atoms: _470  and  _471
REMARK  180  A    between atoms: _476  and  _478
REMARK  181  A    between atoms: _478  and  _479
REMARK  182  A    between atoms: _478  and  _481
REMARK  183  A    between atoms: _481  and  _482
REMARK  184  A    between atoms: _492  and  _494
REMARK  185  A    between atoms: _494  and  _495
REMARK  186  A    between atoms: _494  and  _497
REMARK  187  A    between atoms: _497  and  _498
REMARK  188  A    between atoms: _498  and  _499
REMARK  189  A    between atoms: _501  and  _503
REMARK  190  A    between atoms: _503  and  _504
REMARK  191  A    between atoms: _503  and  _506
REMARK  192  A    between atoms: _506  and  _507
REMARK  193  A    between atoms: _507  and  _508
REMARK                            x       y       z     vdW  Elec       q    Type
REMARK                         _______ _______ _______ _____ _____    ______ ____
ROOT
ATOM      1  O   HOH     1      14.118   9.672  15.006  0.00  0.00    +0.000 OA
ENDROOT
TORSDOF 0
REMARK  Name = ../refined-set-2016/1q54/1q54_pocket.pdb
REMARK  193 active torsions:
REMARK  status: ('A' for Active; 'I' for Inactive)
REMARK    1  A    between atoms: _1  and  _5
REMARK    2  A    between atoms: _5  and  _6
REMARK    3  A    between atoms: _5  and  _8
REMARK    4  A    between atoms: _8  and  _9
REMARK    5  A    between atoms: _9  and  _10
REMARK    6  A    between atoms: _13  and  _15
REMARK    7  A    between atoms: _15  and  _16
REMARK    8  A    between atoms: _15  and  _18
REMARK    9  A    between atoms: _18  and  _19
REMARK   10  A    between atoms: _24  and  _26
REMARK   11  A    between atoms: _26  and  _27
REMARK   12  A    between atoms: _26  and  _29
REMARK   13  A    between atoms: _32  and  _34
REMARK   14  A    between atoms: _34  and  _35
REMARK   15  A    between atoms: _34  and  _37
REMARK   16  A    between atoms: _37  and  _38
REMARK   17  A    between atoms: _38  and  _39
REMARK   18  A    between atoms: _39  and  _40
REMARK   19  A    between atoms: _40  and  _41
REMARK   20  A    between atoms: _45  and  _47
REMARK   21  A    between atoms: _47  and  _48
REMARK   22  A    between atoms: _47  and  _50
REMARK   23  A    between atoms: _50  and  _51
REMARK   24  A    between atoms: _55  and  MN_513
REMARK   25  A    between atoms: _56  and  _58
REMARK   26  A    between atoms: _58  and  _59
REMARK   27  A    between atoms: _58  and  _61
REMARK   28  A    between atoms: _61  and  _62
REMARK   29  A    between atoms: _66  and  MN_513
REMARK   30  A    between atoms: _67  and  _69
REMARK   31  A    between atoms: _69  and  _70
REMARK   32  A    between atoms: _69  and  _72
REMARK   33  A    between atoms: _72  and  _73
REMARK   34  A    between atoms: _76  and  _78
REMARK   35  A    between atoms: _78  and  _79
REMARK   36  A    between atoms: _82  and  _84
REMARK   37  A    between atoms: _84  and  _85
REMARK   38  A    between atoms: _84  and  _87
REMARK   39  A    between atoms: _87  and  _88
REMARK   40  A    between atoms: _94  and  _96
REMARK   41  A    between atoms: _96  and  _97
REMARK   42  A    between atoms: _96  and  _99
REMARK   43  A    between atoms: _99  and  _100
REMARK   44  A    between atoms: _102  and  _104
REMARK   45  A    between atoms: _104  and  _105
REMARK   46  A    between atoms: _104  and  _107
REMARK   47  A    between atoms: _107  and  _108
REMARK   48  A    between atoms: _110  and  _112
REMARK   49  A    between atoms: _112  and  _113
REMARK   50  A    between atoms: _112  and  _115
REMARK   51  A    between atoms: _115  and  _116
REMARK   52  A    between atoms: _126  and  _128
REMARK   53  A    between atoms: _128  and  _129
REMARK   54  A    between atoms: _128  and  _131
REMARK   55  A    between atoms: _131  and  _132
REMARK   56  A    between atoms: _135  and  _137
REMARK   57  A    between atoms: _137  and  _138
REMARK   58  A    between atoms: _137  and  _140
REMARK   59  A    between atoms: _140  and  _141
REMARK   60  A    between atoms: _141  and  _142
REMARK   61  A    between atoms: _142  and  _143
REMARK   62  A    between atoms: _152  and  _154
REMARK   63  A    between atoms: _154  and  _155
REMARK   64  A    between atoms: _158  and  _160
REMARK   65  A    between atoms: _160  and  _161
REMARK   66  A    between atoms: _160  and  _163
REMARK   67  A    between atoms: _163  and  _164
REMARK   68  A    between atoms: _164  and  _165
REMARK   69  A    between atoms: _165  and  _166
REMARK   70  A    between atoms: _166  and  _167
REMARK   71  A    between atoms: _171  and  _173
REMARK   72  A    between atoms: _173  and  _174
REMARK   73  A    between atoms: _173  and  _176
REMARK   74  A    between atoms: _176  and  _177
REMARK   75  A    between atoms: _177  and  _178
REMARK   76  A    between atoms: _178  and  _179
REMARK   77  A    between atoms: _179  and  _180
REMARK   78  A    between atoms: _184  and  _186
REMARK   79  A    between atoms: _186  and  _187
REMARK   80  A    between atoms: _190  and  _192
REMARK   81  A    between atoms: _192  and  _193
REMARK   82  A    between atoms: _192  and  _195
REMARK   83  A    between atoms: _195  and  _196
REMARK   84  A    between atoms: _206  and  _208
REMARK   85  A    between atoms: _208  and  _209
REMARK   86  A    between atoms: _208  and  _211
REMARK   87  A    between atoms: _211  and  _212
REMARK   88  A    between atoms: _215  and  _217
REMARK   89  A    between atoms: _217  and  _218
REMARK   90  A    between atoms: _217  and  _220
REMARK   91  A    between atoms: _220  and  _221
REMARK   92  A    between atoms: _226  and  _228
REMARK   93  A    between atoms: _228  and  _229
REMARK   94  A    between atoms: _228  and  _231
REMARK   95  A    between atoms: _231  and  _232
REMARK   96  A    between atoms: _234  and  _236
REMARK   97  A    between atoms: _236  and  _237
REMARK   98  A    between atoms: _236  and  _239
REMARK   99  A    between atoms: _242  and  _244
REMARK  100  A    between atoms: _244  and  _245
REMARK  101  A    between atoms: _248  and  _250
REMARK  102  A    between atoms: _250  and  _251
REMARK  103  A    between atoms: _253  and  _255
REMARK  104  A    between atoms: _255  and  _256
REMARK  105  A    between atoms: _255  and  _258
REMARK  106  A    between atoms: _258  and  _259
REMARK  107  A    between atoms: _263  and  MN_513
REMARK  108  A    between atoms: _265  and  _266
REMARK  109  A    between atoms: _271  and  _273
REMARK  110  A    between atoms: _273  and  _274
REMARK  111  A    between atoms: _273  and  _276
REMARK  112  A    between atoms: _276  and  _277
REMARK  113  A    between atoms: _277  and  _278
REMARK  114  A    between atoms: _283  and  _285
REMARK  115  A    between atoms: _285  and  _286
REMARK  116  A    between atoms: _285  and  _288
REMARK  117  A    between atoms: _288  and  _289
REMARK  118  A    between atoms: _289  and  _290
REMARK  119  A    between atoms: _290  and  _291
REMARK  120  A    between atoms: _300  and  _302
REMARK  121  A    between atoms: _302  and  _303
REMARK  122  A    between atoms: _302  and  _305
REMARK  123  A    between atoms: _305  and  _306
REMARK  124  A    between atoms: _306  and  _307
REMARK  125  A    between atoms: _307  and  _308
REMARK  126  A    between atoms: _317  and  _319
REMARK  127  A    between atoms: _319  and  _320
REMARK  128  A    between atoms: _319  and  _322
REMARK  129  A    between atoms: _322  and  _323
REMARK  130  A    between atoms: _328  and  _329
REMARK  131  A    between atoms: _331  and  _333
REMARK  132  A    between atoms: _333  and  _334
REMARK  133  A    between atoms: _333  and  _336
REMARK  134  A    between atoms: _336  and  _337
REMARK  135  A    between atoms: _337  and  _338
REMARK  136  A    between atoms: _338  and  _340
REMARK  137  A    between atoms: _340  and  MG_514
REMARK  138  A    between atoms: _341  and  _343
REMARK  139  A    between atoms: _343  and  _344
REMARK  140  A    between atoms: _343  and  _346
REMARK  141  A    between atoms: _346  and  _347
REMARK  142  A    between atoms: _353  and  _355
REMARK  143  A    between atoms: _355  and  _356
REMARK  144  A    between atoms: _355  and  _358
REMARK  145  A    between atoms: _358  and  _359
REMARK  146  A    between atoms: _364  and  _365
REMARK  147  A    between atoms: _367  and  _369
REMARK  148  A    between atoms: _369  and  _370
REMARK  149  A    between atoms: _373  and  _375
REMARK  150  A    between atoms: _375  and  _376
REMARK  151  A    between atoms: _375  and  _378
REMARK  152  A    between atoms: _381  and  _383
REMARK  153  A    between atoms: _393  and  _396
REMARK  154  A    between atoms: _396  and  _397
REMARK  155  A    between atoms: _404  and  _405
REMARK  156  A    between atoms: _412  and  _414
REMARK  157  A    between atoms: _414  and  _415
REMARK  158  A    between atoms: _414  and  _417
REMARK  159  A    between atoms: _420  and  _422
REMARK  160  A    between atoms: _422  and  _423
REMARK  161  A    between atoms: _422  and  _425
REMARK  162  A    between atoms: _428  and  _429
REMARK  163  A    between atoms: _434  and  _436
REMARK  164  A    between atoms: _436  and  _437
REMARK  165  A    between atoms: _436  and  _439
REMARK  166  A    between atoms: _442  and  _444
REMARK  167  A    between atoms: _444  and  _445
REMARK  168  A    between atoms: _444  and  _447
REMARK  169  A    between atoms: _447  and  _448
REMARK  170  A    between atoms: _451  and  _453
REMARK  171  A    between atoms: _453  and  _454
REMARK  172  A    between atoms: _453  and  _456
REMARK  173  A    between atoms: _456  and  _457
REMARK  174  A    between atoms: _457  and  _458
REMARK  175  A    between atoms: _461  and  _463
REMARK  176  A    between atoms: _463  and  _464
REMARK  177  A    between atoms: _463  and  _466
REMARK  178  A    between atoms: _466  and  _467
REMARK  179  A    between atoms: _470  and  _471
REMARK  180  A    between atoms: _476  and  _478
REMARK  181  A    between atoms: _478  and  _479
REMARK  182  A    between atoms: _478  and  _481
REMARK  183  A    between atoms: _481  and  _482
REMARK  184  A    between atoms: _492  and  _494
REMARK  185  A    between atoms: _494  and  _495
REMARK  186  A    between atoms: _494  and  _497
REMARK  187  A    between atoms: _497  and  _498
REMARK  188  A    between atoms: _498  and  _499
REMARK  189  A    between atoms: _501  and  _503
REMARK  190  A    between atoms: _503  and  _504
REMARK  191  A    between atoms: _503  and  _506
REMARK  192  A    between atoms: _506  and  _507
REMARK  193  A    between atoms: _507  and  _508
REMARK                            x       y       z     vdW  Elec       q    Type
REMARK                         _______ _______ _______ _____ _____    ______ ____
ROOT
ATOM      1  O   HOH     1      10.001  -2.972   8.805  0.00  0.00    +0.000 OA
ENDROOT
TORSDOF 0
REMARK  Name = ../refined-set-2016/1q54/1q54_pocket.pdb
REMARK  193 active torsions:
REMARK  status: ('A' for Active; 'I' for Inactive)
REMARK    1  A    between atoms: _1  and  _5
REMARK    2  A    between atoms: _5  and  _6
REMARK    3  A    between atoms: _5  and  _8
REMARK    4  A    between atoms: _8  and  _9
REMARK    5  A    between atoms: _9  and  _10
REMARK    6  A    between atoms: _13  and  _15
REMARK    7  A    between atoms: _15  and  _16
REMARK    8  A    between atoms: _15  and  _18
REMARK    9  A    between atoms: _18  and  _19
REMARK   10  A    between atoms: _24  and  _26
REMARK   11  A    between atoms: _26  and  _27
REMARK   12  A    between atoms: _26  and  _29
REMARK   13  A    between atoms: _32  and  _34
REMARK   14  A    between atoms: _34  and  _35
REMARK   15  A    between atoms: _34  and  _37
REMARK   16  A    between atoms: _37  and  _38
REMARK   17  A    between atoms: _38  and  _39
REMARK   18  A    between atoms: _39  and  _40
REMARK   19  A    between atoms: _40  and  _41
REMARK   20  A    between atoms: _45  and  _47
REMARK   21  A    between atoms: _47  and  _48
REMARK   22  A    between atoms: _47  and  _50
REMARK   23  A    between atoms: _50  and  _51
REMARK   24  A    between atoms: _55  and  MN_513
REMARK   25  A    between atoms: _56  and  _58
REMARK   26  A    between atoms: _58  and  _59
REMARK   27  A    between atoms: _58  and  _61
REMARK   28  A    between atoms: _61  and  _62
REMARK   29  A    between atoms: _66  and  MN_513
REMARK   30  A    between atoms: _67  and  _69
REMARK   31  A    between atoms: _69  and  _70
REMARK   32  A    between atoms: _69  and  _72
REMARK   33  A    between atoms: _72  and  _73
REMARK   34  A    between atoms: _76  and  _78
REMARK   35  A    between atoms: _78  and  _79
REMARK   36  A    between atoms: _82  and  _84
REMARK   37  A    between atoms: _84  and  _85
REMARK   38  A    between atoms: _84  and  _87
REMARK   39  A    between atoms: _87  and  _88
REMARK   40  A    between atoms: _94  and  _96
REMARK   41  A    between atoms: _96  and  _97
REMARK   42  A    between atoms: _96  and  _99
REMARK   43  A    between atoms: _99  and  _100
REMARK   44  A    between atoms: _102  and  _104
REMARK   45  A    between atoms: _104  and  _105
REMARK   46  A    between atoms: _104  and  _107
REMARK   47  A    between atoms: _107  and  _108
REMARK   48  A    between atoms: _110  and  _112
REMARK   49  A    between atoms: _112  and  _113
REMARK   50  A    between atoms: _112  and  _115
REMARK   51  A    between atoms: _115  and  _116
REMARK   52  A    between atoms: _126  and  _128
REMARK   53  A    between atoms: _128  and  _129
REMARK   54  A    between atoms: _128  and  _131
REMARK   55  A    between atoms: _131  and  _132
REMARK   56  A    between atoms: _135  and  _137
REMARK   57  A    between atoms: _137  and  _138
REMARK   58  A    between atoms: _137  and  _140
REMARK   59  A    between atoms: _140  and  _141
REMARK   60  A    between atoms: _141  and  _142
REMARK   61  A    between atoms: _142  and  _143
REMARK   62  A    between atoms: _152  and  _154
REMARK   63  A    between atoms: _154  and  _155
REMARK   64  A    between atoms: _158  and  _160
REMARK   65  A    between atoms: _160  and  _161
REMARK   66  A    between atoms: _160  and  _163
REMARK   67  A    between atoms: _163  and  _164
REMARK   68  A    between atoms: _164  and  _165
REMARK   69  A    between atoms: _165  and  _166
REMARK   70  A    between atoms: _166  and  _167
REMARK   71  A    between atoms: _171  and  _173
REMARK   72  A    between atoms: _173  and  _174
REMARK   73  A    between atoms: _173  and  _176
REMARK   74  A    between atoms: _176  and  _177
REMARK   75  A    between atoms: _177  and  _178
REMARK   76  A    between atoms: _178  and  _179
REMARK   77  A    between atoms: _179  and  _180
REMARK   78  A    between atoms: _184  and  _186
REMARK   79  A    between atoms: _186  and  _187
REMARK   80  A    between atoms: _190  and  _192
REMARK   81  A    between atoms: _192  and  _193
REMARK   82  A    between atoms: _192  and  _195
REMARK   83  A    between atoms: _195  and  _196
REMARK   84  A    between atoms: _206  and  _208
REMARK   85  A    between atoms: _208  and  _209
REMARK   86  A    between atoms: _208  and  _211
REMARK   87  A    between atoms: _211  and  _212
REMARK   88  A    between atoms: _215  and  _217
REMARK   89  A    between atoms: _217  and  _218
REMARK   90  A    between atoms: _217  and  _220
REMARK   91  A    between atoms: _220  and  _221
REMARK   92  A    between atoms: _226  and  _228
REMARK   93  A    between atoms: _228  and  _229
REMARK   94  A    between atoms: _228  and  _231
REMARK   95  A    between atoms: _231  and  _232
REMARK   96  A    between atoms: _234  and  _236
REMARK   97  A    between atoms: _236  and  _237
REMARK   98  A    between atoms: _236  and  _239
REMARK   99  A    between atoms: _242  and  _244
REMARK  100  A    between atoms: _244  and  _245
REMARK  101  A    between atoms: _248  and  _250
REMARK  102  A    between atoms: _250  and  _251
REMARK  103  A    between atoms: _253  and  _255
REMARK  104  A    between atoms: _255  and  _256
REMARK  105  A    between atoms: _255  and  _258
REMARK  106  A    between atoms: _258  and  _259
REMARK  107  A    between atoms: _263  and  MN_513
REMARK  108  A    between atoms: _265  and  _266
REMARK  109  A    between atoms: _271  and  _273
REMARK  110  A    between atoms: _273  and  _274
REMARK  111  A    between atoms: _273  and  _276
REMARK  112  A    between atoms: _276  and  _277
REMARK  113  A    between atoms: _277  and  _278
REMARK  114  A    between atoms: _283  and  _285
REMARK  115  A    between atoms: _285  and  _286
REMARK  116  A    between atoms: _285  and  _288
REMARK  117  A    between atoms: _288  and  _289
REMARK  118  A    between atoms: _289  and  _290
REMARK  119  A    between atoms: _290  and  _291
REMARK  120  A    between atoms: _300  and  _302
REMARK  121  A    between atoms: _302  and  _303
REMARK  122  A    between atoms: _302  and  _305
REMARK  123  A    between atoms: _305  and  _306
REMARK  124  A    between atoms: _306  and  _307
REMARK  125  A    between atoms: _307  and  _308
REMARK  126  A    between atoms: _317  and  _319
REMARK  127  A    between atoms: _319  and  _320
REMARK  128  A    between atoms: _319  and  _322
REMARK  129  A    between atoms: _322  and  _323
REMARK  130  A    between atoms: _328  and  _329
REMARK  131  A    between atoms: _331  and  _333
REMARK  132  A    between atoms: _333  and  _334
REMARK  133  A    between atoms: _333  and  _336
REMARK  134  A    between atoms: _336  and  _337
REMARK  135  A    between atoms: _337  and  _338
REMARK  136  A    between atoms: _338  and  _340
REMARK  137  A    between atoms: _340  and  MG_514
REMARK  138  A    between atoms: _341  and  _343
REMARK  139  A    between atoms: _343  and  _344
REMARK  140  A    between atoms: _343  and  _346
REMARK  141  A    between atoms: _346  and  _347
REMARK  142  A    between atoms: _353  and  _355
REMARK  143  A    between atoms: _355  and  _356
REMARK  144  A    between atoms: _355  and  _358
REMARK  145  A    between atoms: _358  and  _359
REMARK  146  A    between atoms: _364  and  _365
REMARK  147  A    between atoms: _367  and  _369
REMARK  148  A    between atoms: _369  and  _370
REMARK  149  A    between atoms: _373  and  _375
REMARK  150  A    between atoms: _375  and  _376
REMARK  151  A    between atoms: _375  and  _378
REMARK  152  A    between atoms: _381  and  _383
REMARK  153  A    between atoms: _393  and  _396
REMARK  154  A    between atoms: _396  and  _397
REMARK  155  A    between atoms: _404  and  _405
REMARK  156  A    between atoms: _412  and  _414
REMARK  157  A    between atoms: _414  and  _415
REMARK  158  A    between atoms: _414  and  _417
REMARK  159  A    between atoms: _420  and  _422
REMARK  160  A    between atoms: _422  and  _423
REMARK  161  A    between atoms: _422  and  _425
REMARK  162  A    between atoms: _428  and  _429
REMARK  163  A    between atoms: _434  and  _436
REMARK  164  A    between atoms: _436  and  _437
REMARK  165  A    between atoms: _436  and  _439
REMARK  166  A    between atoms: _442  and  _444
REMARK  167  A    between atoms: _444  and  _445
REMARK  168  A    between atoms: _444  and  _447
REMARK  169  A    between atoms: _447  and  _448
REMARK  170  A    between atoms: _451  and  _453
REMARK  171  A    between atoms: _453  and  _454
REMARK  172  A    between atoms: _453  and  _456
REMARK  173  A    between atoms: _456  and  _457
REMARK  174  A    between atoms: _457  and  _458
REMARK  175  A    between atoms: _461  and  _463
REMARK  176  A    between atoms: _463  and  _464
REMARK  177  A    between atoms: _463  and  _466
REMARK  178  A    between atoms: _466  and  _467
REMARK  179  A    between atoms: _470  and  _471
REMARK  180  A    between atoms: _476  and  _478
REMARK  181  A    between atoms: _478  and  _479
REMARK  182  A    between atoms: _478  and  _481
REMARK  183  A    between atoms: _481  and  _482
REMARK  184  A    between atoms: _492  and  _494
REMARK  185  A    between atoms: _494  and  _495
REMARK  186  A    between atoms: _494  and  _497
REMARK  187  A    between atoms: _497  and  _498
REMARK  188  A    between atoms: _498  and  _499
REMARK  189  A    between atoms: _501  and  _503
REMARK  190  A    between atoms: _503  and  _504
REMARK  191  A    between atoms: _503  and  _506
REMARK  192  A    between atoms: _506  and  _507
REMARK  193  A    between atoms: _507  and  _508
REMARK                            x       y       z     vdW  Elec       q    Type
REMARK                         _______ _______ _______ _____ _____    ______ ____
ROOT
ATOM      1  O   HOH     1       5.323  -0.656   9.745  0.00  0.00    +0.000 OA
ENDROOT
TORSDOF 0
REMARK  Name = ../refined-set-2016/1q54/1q54_pocket.pdb
REMARK  193 active torsions:
REMARK  status: ('A' for Active; 'I' for Inactive)
REMARK    1  A    between atoms: _1  and  _5
REMARK    2  A    between atoms: _5  and  _6
REMARK    3  A    between atoms: _5  and  _8
REMARK    4  A    between atoms: _8  and  _9
REMARK    5  A    between atoms: _9  and  _10
REMARK    6  A    between atoms: _13  and  _15
REMARK    7  A    between atoms: _15  and  _16
REMARK    8  A    between atoms: _15  and  _18
REMARK    9  A    between atoms: _18  and  _19
REMARK   10  A    between atoms: _24  and  _26
REMARK   11  A    between atoms: _26  and  _27
REMARK   12  A    between atoms: _26  and  _29
REMARK   13  A    between atoms: _32  and  _34
REMARK   14  A    between atoms: _34  and  _35
REMARK   15  A    between atoms: _34  and  _37
REMARK   16  A    between atoms: _37  and  _38
REMARK   17  A    between atoms: _38  and  _39
REMARK   18  A    between atoms: _39  and  _40
REMARK   19  A    between atoms: _40  and  _41
REMARK   20  A    between atoms: _45  and  _47
REMARK   21  A    between atoms: _47  and  _48
REMARK   22  A    between atoms: _47  and  _50
REMARK   23  A    between atoms: _50  and  _51
REMARK   24  A    between atoms: _55  and  MN_513
REMARK   25  A    between atoms: _56  and  _58
REMARK   26  A    between atoms: _58  and  _59
REMARK   27  A    between atoms: _58  and  _61
REMARK   28  A    between atoms: _61  and  _62
REMARK   29  A    between atoms: _66  and  MN_513
REMARK   30  A    between atoms: _67  and  _69
REMARK   31  A    between atoms: _69  and  _70
REMARK   32  A    between atoms: _69  and  _72
REMARK   33  A    between atoms: _72  and  _73
REMARK   34  A    between atoms: _76  and  _78
REMARK   35  A    between atoms: _78  and  _79
REMARK   36  A    between atoms: _82  and  _84
REMARK   37  A    between atoms: _84  and  _85
REMARK   38  A    between atoms: _84  and  _87
REMARK   39  A    between atoms: _87  and  _88
REMARK   40  A    between atoms: _94  and  _96
REMARK   41  A    between atoms: _96  and  _97
REMARK   42  A    between atoms: _96  and  _99
REMARK   43  A    between atoms: _99  and  _100
REMARK   44  A    between atoms: _102  and  _104
REMARK   45  A    between atoms: _104  and  _105
REMARK   46  A    between atoms: _104  and  _107
REMARK   47  A    between atoms: _107  and  _108
REMARK   48  A    between atoms: _110  and  _112
REMARK   49  A    between atoms: _112  and  _113
REMARK   50  A    between atoms: _112  and  _115
REMARK   51  A    between atoms: _115  and  _116
REMARK   52  A    between atoms: _126  and  _128
REMARK   53  A    between atoms: _128  and  _129
REMARK   54  A    between atoms: _128  and  _131
REMARK   55  A    between atoms: _131  and  _132
REMARK   56  A    between atoms: _135  and  _137
REMARK   57  A    between atoms: _137  and  _138
REMARK   58  A    between atoms: _137  and  _140
REMARK   59  A    between atoms: _140  and  _141
REMARK   60  A    between atoms: _141  and  _142
REMARK   61  A    between atoms: _142  and  _143
REMARK   62  A    between atoms: _152  and  _154
REMARK   63  A    between atoms: _154  and  _155
REMARK   64  A    between atoms: _158  and  _160
REMARK   65  A    between atoms: _160  and  _161
REMARK   66  A    between atoms: _160  and  _163
REMARK   67  A    between atoms: _163  and  _164
REMARK   68  A    between atoms: _164  and  _165
REMARK   69  A    between atoms: _165  and  _166
REMARK   70  A    between atoms: _166  and  _167
REMARK   71  A    between atoms: _171  and  _173
REMARK   72  A    between atoms: _173  and  _174
REMARK   73  A    between atoms: _173  and  _176
REMARK   74  A    between atoms: _176  and  _177
REMARK   75  A    between atoms: _177  and  _178
REMARK   76  A    between atoms: _178  and  _179
REMARK   77  A    between atoms: _179  and  _180
REMARK   78  A    between atoms: _184  and  _186
REMARK   79  A    between atoms: _186  and  _187
REMARK   80  A    between atoms: _190  and  _192
REMARK   81  A    between atoms: _192  and  _193
REMARK   82  A    between atoms: _192  and  _195
REMARK   83  A    between atoms: _195  and  _196
REMARK   84  A    between atoms: _206  and  _208
REMARK   85  A    between atoms: _208  and  _209
REMARK   86  A    between atoms: _208  and  _211
REMARK   87  A    between atoms: _211  and  _212
REMARK   88  A    between atoms: _215  and  _217
REMARK   89  A    between atoms: _217  and  _218
REMARK   90  A    between atoms: _217  and  _220
REMARK   91  A    between atoms: _220  and  _221
REMARK   92  A    between atoms: _226  and  _228
REMARK   93  A    between atoms: _228  and  _229
REMARK   94  A    between atoms: _228  and  _231
REMARK   95  A    between atoms: _231  and  _232
REMARK   96  A    between atoms: _234  and  _236
REMARK   97  A    between atoms: _236  and  _237
REMARK   98  A    between atoms: _236  and  _239
REMARK   99  A    between atoms: _242  and  _244
REMARK  100  A    between atoms: _244  and  _245
REMARK  101  A    between atoms: _248  and  _250
REMARK  102  A    between atoms: _250  and  _251
REMARK  103  A    between atoms: _253  and  _255
REMARK  104  A    between atoms: _255  and  _256
REMARK  105  A    between atoms: _255  and  _258
REMARK  106  A    between atoms: _258  and  _259
REMARK  107  A    between atoms: _263  and  MN_513
REMARK  108  A    between atoms: _265  and  _266
REMARK  109  A    between atoms: _271  and  _273
REMARK  110  A    between atoms: _273  and  _274
REMARK  111  A    between atoms: _273  and  _276
REMARK  112  A    between atoms: _276  and  _277
REMARK  113  A    between atoms: _277  and  _278
REMARK  114  A    between atoms: _283  and  _285
REMARK  115  A    between atoms: _285  and  _286
REMARK  116  A    between atoms: _285  and  _288
REMARK  117  A    between atoms: _288  and  _289
REMARK  118  A    between atoms: _289  and  _290
REMARK  119  A    between atoms: _290  and  _291
REMARK  120  A    between atoms: _300  and  _302
REMARK  121  A    between atoms: _302  and  _303
REMARK  122  A    between atoms: _302  and  _305
REMARK  123  A    between atoms: _305  and  _306
REMARK  124  A    between atoms: _306  and  _307
REMARK  125  A    between atoms: _307  and  _308
REMARK  126  A    between atoms: _317  and  _319
REMARK  127  A    between atoms: _319  and  _320
REMARK  128  A    between atoms: _319  and  _322
REMARK  129  A    between atoms: _322  and  _323
REMARK  130  A    between atoms: _328  and  _329
REMARK  131  A    between atoms: _331  and  _333
REMARK  132  A    between atoms: _333  and  _334
REMARK  133  A    between atoms: _333  and  _336
REMARK  134  A    between atoms: _336  and  _337
REMARK  135  A    between atoms: _337  and  _338
REMARK  136  A    between atoms: _338  and  _340
REMARK  137  A    between atoms: _340  and  MG_514
REMARK  138  A    between atoms: _341  and  _343
REMARK  139  A    between atoms: _343  and  _344
REMARK  140  A    between atoms: _343  and  _346
REMARK  141  A    between atoms: _346  and  _347
REMARK  142  A    between atoms: _353  and  _355
REMARK  143  A    between atoms: _355  and  _356
REMARK  144  A    between atoms: _355  and  _358
REMARK  145  A    between atoms: _358  and  _359
REMARK  146  A    between atoms: _364  and  _365
REMARK  147  A    between atoms: _367  and  _369
REMARK  148  A    between atoms: _369  and  _370
REMARK  149  A    between atoms: _373  and  _375
REMARK  150  A    between atoms: _375  and  _376
REMARK  151  A    between atoms: _375  and  _378
REMARK  152  A    between atoms: _381  and  _383
REMARK  153  A    between atoms: _393  and  _396
REMARK  154  A    between atoms: _396  and  _397
REMARK  155  A    between atoms: _404  and  _405
REMARK  156  A    between atoms: _412  and  _414
REMARK  157  A    between atoms: _414  and  _415
REMARK  158  A    between atoms: _414  and  _417
REMARK  159  A    between atoms: _420  and  _422
REMARK  160  A    between atoms: _422  and  _423
REMARK  161  A    between atoms: _422  and  _425
REMARK  162  A    between atoms: _428  and  _429
REMARK  163  A    between atoms: _434  and  _436
REMARK  164  A    between atoms: _436  and  _437
REMARK  165  A    between atoms: _436  and  _439
REMARK  166  A    between atoms: _442  and  _444
REMARK  167  A    between atoms: _444  and  _445
REMARK  168  A    between atoms: _444  and  _447
REMARK  169  A    between atoms: _447  and  _448
REMARK  170  A    between atoms: _451  and  _453
REMARK  171  A    between atoms: _453  and  _454
REMARK  172  A    between atoms: _453  and  _456
REMARK  173  A    between atoms: _456  and  _457
REMARK  174  A    between atoms: _457  and  _458
REMARK  175  A    between atoms: _461  and  _463
REMARK  176  A    between atoms: _463  and  _464
REMARK  177  A    between atoms: _463  and  _466
REMARK  178  A    between atoms: _466  and  _467
REMARK  179  A    between atoms: _470  and  _471
REMARK  180  A    between atoms: _476  and  _478
REMARK  181  A    between atoms: _478  and  _479
REMARK  182  A    between atoms: _478  and  _481
REMARK  183  A    between atoms: _481  and  _482
REMARK  184  A    between atoms: _492  and  _494
REMARK  185  A    between atoms: _494  and  _495
REMARK  186  A    between atoms: _494  and  _497
REMARK  187  A    between atoms: _497  and  _498
REMARK  188  A    between atoms: _498  and  _499
REMARK  189  A    between atoms: _501  and  _503
REMARK  190  A    between atoms: _503  and  _504
REMARK  191  A    between atoms: _503  and  _506
REMARK  192  A    between atoms: _506  and  _507
REMARK  193  A    between atoms: _507  and  _508
REMARK                            x       y       z     vdW  Elec       q    Type
REMARK                         _______ _______ _______ _____ _____    ______ ____
ROOT
ATOM      1  O   HOH     1      14.754   0.855   7.542  0.00  0.00    +0.000 OA
ENDROOT
TORSDOF 0
REMARK  Name = ../refined-set-2016/1q54/1q54_pocket.pdb
REMARK  193 active torsions:
REMARK  status: ('A' for Active; 'I' for Inactive)
REMARK    1  A    between atoms: _1  and  _5
REMARK    2  A    between atoms: _5  and  _6
REMARK    3  A    between atoms: _5  and  _8
REMARK    4  A    between atoms: _8  and  _9
REMARK    5  A    between atoms: _9  and  _10
REMARK    6  A    between atoms: _13  and  _15
REMARK    7  A    between atoms: _15  and  _16
REMARK    8  A    between atoms: _15  and  _18
REMARK    9  A    between atoms: _18  and  _19
REMARK   10  A    between atoms: _24  and  _26
REMARK   11  A    between atoms: _26  and  _27
REMARK   12  A    between atoms: _26  and  _29
REMARK   13  A    between atoms: _32  and  _34
REMARK   14  A    between atoms: _34  and  _35
REMARK   15  A    between atoms: _34  and  _37
REMARK   16  A    between atoms: _37  and  _38
REMARK   17  A    between atoms: _38  and  _39
REMARK   18  A    between atoms: _39  and  _40
REMARK   19  A    between atoms: _40  and  _41
REMARK   20  A    between atoms: _45  and  _47
REMARK   21  A    between atoms: _47  and  _48
REMARK   22  A    between atoms: _47  and  _50
REMARK   23  A    between atoms: _50  and  _51
REMARK   24  A    between atoms: _55  and  MN_513
REMARK   25  A    between atoms: _56  and  _58
REMARK   26  A    between atoms: _58  and  _59
REMARK   27  A    between atoms: _58  and  _61
REMARK   28  A    between atoms: _61  and  _62
REMARK   29  A    between atoms: _66  and  MN_513
REMARK   30  A    between atoms: _67  and  _69
REMARK   31  A    between atoms: _69  and  _70
REMARK   32  A    between atoms: _69  and  _72
REMARK   33  A    between atoms: _72  and  _73
REMARK   34  A    between atoms: _76  and  _78
REMARK   35  A    between atoms: _78  and  _79
REMARK   36  A    between atoms: _82  and  _84
REMARK   37  A    between atoms: _84  and  _85
REMARK   38  A    between atoms: _84  and  _87
REMARK   39  A    between atoms: _87  and  _88
REMARK   40  A    between atoms: _94  and  _96
REMARK   41  A    between atoms: _96  and  _97
REMARK   42  A    between atoms: _96  and  _99
REMARK   43  A    between atoms: _99  and  _100
REMARK   44  A    between atoms: _102  and  _104
REMARK   45  A    between atoms: _104  and  _105
REMARK   46  A    between atoms: _104  and  _107
REMARK   47  A    between atoms: _107  and  _108
REMARK   48  A    between atoms: _110  and  _112
REMARK   49  A    between atoms: _112  and  _113
REMARK   50  A    between atoms: _112  and  _115
REMARK   51  A    between atoms: _115  and  _116
REMARK   52  A    between atoms: _126  and  _128
REMARK   53  A    between atoms: _128  and  _129
REMARK   54  A    between atoms: _128  and  _131
REMARK   55  A    between atoms: _131  and  _132
REMARK   56  A    between atoms: _135  and  _137
REMARK   57  A    between atoms: _137  and  _138
REMARK   58  A    between atoms: _137  and  _140
REMARK   59  A    between atoms: _140  and  _141
REMARK   60  A    between atoms: _141  and  _142
REMARK   61  A    between atoms: _142  and  _143
REMARK   62  A    between atoms: _152  and  _154
REMARK   63  A    between atoms: _154  and  _155
REMARK   64  A    between atoms: _158  and  _160
REMARK   65  A    between atoms: _160  and  _161
REMARK   66  A    between atoms: _160  and  _163
REMARK   67  A    between atoms: _163  and  _164
REMARK   68  A    between atoms: _164  and  _165
REMARK   69  A    between atoms: _165  and  _166
REMARK   70  A    between atoms: _166  and  _167
REMARK   71  A    between atoms: _171  and  _173
REMARK   72  A    between atoms: _173  and  _174
REMARK   73  A    between atoms: _173  and  _176
REMARK   74  A    between atoms: _176  and  _177
REMARK   75  A    between atoms: _177  and  _178
REMARK   76  A    between atoms: _178  and  _179
REMARK   77  A    between atoms: _179  and  _180
REMARK   78  A    between atoms: _184  and  _186
REMARK   79  A    between atoms: _186  and  _187
REMARK   80  A    between atoms: _190  and  _192
REMARK   81  A    between atoms: _192  and  _193
REMARK   82  A    between atoms: _192  and  _195
REMARK   83  A    between atoms: _195  and  _196
REMARK   84  A    between atoms: _206  and  _208
REMARK   85  A    between atoms: _208  and  _209
REMARK   86  A    between atoms: _208  and  _211
REMARK   87  A    between atoms: _211  and  _212
REMARK   88  A    between atoms: _215  and  _217
REMARK   89  A    between atoms: _217  and  _218
REMARK   90  A    between atoms: _217  and  _220
REMARK   91  A    between atoms: _220  and  _221
REMARK   92  A    between atoms: _226  and  _228
REMARK   93  A    between atoms: _228  and  _229
REMARK   94  A    between atoms: _228  and  _231
REMARK   95  A    between atoms: _231  and  _232
REMARK   96  A    between atoms: _234  and  _236
REMARK   97  A    between atoms: _236  and  _237
REMARK   98  A    between atoms: _236  and  _239
REMARK   99  A    between atoms: _242  and  _244
REMARK  100  A    between atoms: _244  and  _245
REMARK  101  A    between atoms: _248  and  _250
REMARK  102  A    between atoms: _250  and  _251
REMARK  103  A    between atoms: _253  and  _255
REMARK  104  A    between atoms: _255  and  _256
REMARK  105  A    between atoms: _255  and  _258
REMARK  106  A    between atoms: _258  and  _259
REMARK  107  A    between atoms: _263  and  MN_513
REMARK  108  A    between atoms: _265  and  _266
REMARK  109  A    between atoms: _271  and  _273
REMARK  110  A    between atoms: _273  and  _274
REMARK  111  A    between atoms: _273  and  _276
REMARK  112  A    between atoms: _276  and  _277
REMARK  113  A    between atoms: _277  and  _278
REMARK  114  A    between atoms: _283  and  _285
REMARK  115  A    between atoms: _285  and  _286
REMARK  116  A    between atoms: _285  and  _288
REMARK  117  A    between atoms: _288  and  _289
REMARK  118  A    between atoms: _289  and  _290
REMARK  119  A    between atoms: _290  and  _291
REMARK  120  A    between atoms: _300  and  _302
REMARK  121  A    between atoms: _302  and  _303
REMARK  122  A    between atoms: _302  and  _305
REMARK  123  A    between atoms: _305  and  _306
REMARK  124  A    between atoms: _306  and  _307
REMARK  125  A    between atoms: _307  and  _308
REMARK  126  A    between atoms: _317  and  _319
REMARK  127  A    between atoms: _319  and  _320
REMARK  128  A    between atoms: _319  and  _322
REMARK  129  A    between atoms: _322  and  _323
REMARK  130  A    between atoms: _328  and  _329
REMARK  131  A    between atoms: _331  and  _333
REMARK  132  A    between atoms: _333  and  _334
REMARK  133  A    between atoms: _333  and  _336
REMARK  134  A    between atoms: _336  and  _337
REMARK  135  A    between atoms: _337  and  _338
REMARK  136  A    between atoms: _338  and  _340
REMARK  137  A    between atoms: _340  and  MG_514
REMARK  138  A    between atoms: _341  and  _343
REMARK  139  A    between atoms: _343  and  _344
REMARK  140  A    between atoms: _343  and  _346
REMARK  141  A    between atoms: _346  and  _347
REMARK  142  A    between atoms: _353  and  _355
REMARK  143  A    between atoms: _355  and  _356
REMARK  144  A    between atoms: _355  and  _358
REMARK  145  A    between atoms: _358  and  _359
REMARK  146  A    between atoms: _364  and  _365
REMARK  147  A    between atoms: _367  and  _369
REMARK  148  A    between atoms: _369  and  _370
REMARK  149  A    between atoms: _373  and  _375
REMARK  150  A    between atoms: _375  and  _376
REMARK  151  A    between atoms: _375  and  _378
REMARK  152  A    between atoms: _381  and  _383
REMARK  153  A    between atoms: _393  and  _396
REMARK  154  A    between atoms: _396  and  _397
REMARK  155  A    between atoms: _404  and  _405
REMARK  156  A    between atoms: _412  and  _414
REMARK  157  A    between atoms: _414  and  _415
REMARK  158  A    between atoms: _414  and  _417
REMARK  159  A    between atoms: _420  and  _422
REMARK  160  A    between atoms: _422  and  _423
REMARK  161  A    between atoms: _422  and  _425
REMARK  162  A    between atoms: _428  and  _429
REMARK  163  A    between atoms: _434  and  _436
REMARK  164  A    between atoms: _436  and  _437
REMARK  165  A    between atoms: _436  and  _439
REMARK  166  A    between atoms: _442  and  _444
REMARK  167  A    between atoms: _444  and  _445
REMARK  168  A    between atoms: _444  and  _447
REMARK  169  A    between atoms: _447  and  _448
REMARK  170  A    between atoms: _451  and  _453
REMARK  171  A    between atoms: _453  and  _454
REMARK  172  A    between atoms: _453  and  _456
REMARK  173  A    between atoms: _456  and  _457
REMARK  174  A    between atoms: _457  and  _458
REMARK  175  A    between atoms: _461  and  _463
REMARK  176  A    between atoms: _463  and  _464
REMARK  177  A    between atoms: _463  and  _466
REMARK  178  A    between atoms: _466  and  _467
REMARK  179  A    between atoms: _470  and  _471
REMARK  180  A    between atoms: _476  and  _478
REMARK  181  A    between atoms: _478  and  _479
REMARK  182  A    between atoms: _478  and  _481
REMARK  183  A    between atoms: _481  and  _482
REMARK  184  A    between atoms: _492  and  _494
REMARK  185  A    between atoms: _494  and  _495
REMARK  186  A    between atoms: _494  and  _497
REMARK  187  A    between atoms: _497  and  _498
REMARK  188  A    between atoms: _498  and  _499
REMARK  189  A    between atoms: _501  and  _503
REMARK  190  A    between atoms: _503  and  _504
REMARK  191  A    between atoms: _503  and  _506
REMARK  192  A    between atoms: _506  and  _507
REMARK  193  A    between atoms: _507  and  _508
REMARK                            x       y       z     vdW  Elec       q    Type
REMARK                         _______ _______ _______ _____ _____    ______ ____
ROOT
ATOM      1  O   HOH     1      11.377   0.950   4.452  0.00  0.00    +0.000 OA
ENDROOT
TORSDOF 0
REMARK  Name = ../refined-set-2016/1q54/1q54_pocket.pdb
REMARK  193 active torsions:
REMARK  status: ('A' for Active; 'I' for Inactive)
REMARK    1  A    between atoms: _1  and  _5
REMARK    2  A    between atoms: _5  and  _6
REMARK    3  A    between atoms: _5  and  _8
REMARK    4  A    between atoms: _8  and  _9
REMARK    5  A    between atoms: _9  and  _10
REMARK    6  A    between atoms: _13  and  _15
REMARK    7  A    between atoms: _15  and  _16
REMARK    8  A    between atoms: _15  and  _18
REMARK    9  A    between atoms: _18  and  _19
REMARK   10  A    between atoms: _24  and  _26
REMARK   11  A    between atoms: _26  and  _27
REMARK   12  A    between atoms: _26  and  _29
REMARK   13  A    between atoms: _32  and  _34
REMARK   14  A    between atoms: _34  and  _35
REMARK   15  A    between atoms: _34  and  _37
REMARK   16  A    between atoms: _37  and  _38
REMARK   17  A    between atoms: _38  and  _39
REMARK   18  A    between atoms: _39  and  _40
REMARK   19  A    between atoms: _40  and  _41
REMARK   20  A    between atoms: _45  and  _47
REMARK   21  A    between atoms: _47  and  _48
REMARK   22  A    between atoms: _47  and  _50
REMARK   23  A    between atoms: _50  and  _51
REMARK   24  A    between atoms: _55  and  MN_513
REMARK   25  A    between atoms: _56  and  _58
REMARK   26  A    between atoms: _58  and  _59
REMARK   27  A    between atoms: _58  and  _61
REMARK   28  A    between atoms: _61  and  _62
REMARK   29  A    between atoms: _66  and  MN_513
REMARK   30  A    between atoms: _67  and  _69
REMARK   31  A    between atoms: _69  and  _70
REMARK   32  A    between atoms: _69  and  _72
REMARK   33  A    between atoms: _72  and  _73
REMARK   34  A    between atoms: _76  and  _78
REMARK   35  A    between atoms: _78  and  _79
REMARK   36  A    between atoms: _82  and  _84
REMARK   37  A    between atoms: _84  and  _85
REMARK   38  A    between atoms: _84  and  _87
REMARK   39  A    between atoms: _87  and  _88
REMARK   40  A    between atoms: _94  and  _96
REMARK   41  A    between atoms: _96  and  _97
REMARK   42  A    between atoms: _96  and  _99
REMARK   43  A    between atoms: _99  and  _100
REMARK   44  A    between atoms: _102  and  _104
REMARK   45  A    between atoms: _104  and  _105
REMARK   46  A    between atoms: _104  and  _107
REMARK   47  A    between atoms: _107  and  _108
REMARK   48  A    between atoms: _110  and  _112
REMARK   49  A    between atoms: _112  and  _113
REMARK   50  A    between atoms: _112  and  _115
REMARK   51  A    between atoms: _115  and  _116
REMARK   52  A    between atoms: _126  and  _128
REMARK   53  A    between atoms: _128  and  _129
REMARK   54  A    between atoms: _128  and  _131
REMARK   55  A    between atoms: _131  and  _132
REMARK   56  A    between atoms: _135  and  _137
REMARK   57  A    between atoms: _137  and  _138
REMARK   58  A    between atoms: _137  and  _140
REMARK   59  A    between atoms: _140  and  _141
REMARK   60  A    between atoms: _141  and  _142
REMARK   61  A    between atoms: _142  and  _143
REMARK   62  A    between atoms: _152  and  _154
REMARK   63  A    between atoms: _154  and  _155
REMARK   64  A    between atoms: _158  and  _160
REMARK   65  A    between atoms: _160  and  _161
REMARK   66  A    between atoms: _160  and  _163
REMARK   67  A    between atoms: _163  and  _164
REMARK   68  A    between atoms: _164  and  _165
REMARK   69  A    between atoms: _165  and  _166
REMARK   70  A    between atoms: _166  and  _167
REMARK   71  A    between atoms: _171  and  _173
REMARK   72  A    between atoms: _173  and  _174
REMARK   73  A    between atoms: _173  and  _176
REMARK   74  A    between atoms: _176  and  _177
REMARK   75  A    between atoms: _177  and  _178
REMARK   76  A    between atoms: _178  and  _179
REMARK   77  A    between atoms: _179  and  _180
REMARK   78  A    between atoms: _184  and  _186
REMARK   79  A    between atoms: _186  and  _187
REMARK   80  A    between atoms: _190  and  _192
REMARK   81  A    between atoms: _192  and  _193
REMARK   82  A    between atoms: _192  and  _195
REMARK   83  A    between atoms: _195  and  _196
REMARK   84  A    between atoms: _206  and  _208
REMARK   85  A    between atoms: _208  and  _209
REMARK   86  A    between atoms: _208  and  _211
REMARK   87  A    between atoms: _211  and  _212
REMARK   88  A    between atoms: _215  and  _217
REMARK   89  A    between atoms: _217  and  _218
REMARK   90  A    between atoms: _217  and  _220
REMARK   91  A    between atoms: _220  and  _221
REMARK   92  A    between atoms: _226  and  _228
REMARK   93  A    between atoms: _228  and  _229
REMARK   94  A    between atoms: _228  and  _231
REMARK   95  A    between atoms: _231  and  _232
REMARK   96  A    between atoms: _234  and  _236
REMARK   97  A    between atoms: _236  and  _237
REMARK   98  A    between atoms: _236  and  _239
REMARK   99  A    between atoms: _242  and  _244
REMARK  100  A    between atoms: _244  and  _245
REMARK  101  A    between atoms: _248  and  _250
REMARK  102  A    between atoms: _250  and  _251
REMARK  103  A    between atoms: _253  and  _255
REMARK  104  A    between atoms: _255  and  _256
REMARK  105  A    between atoms: _255  and  _258
REMARK  106  A    between atoms: _258  and  _259
REMARK  107  A    between atoms: _263  and  MN_513
REMARK  108  A    between atoms: _265  and  _266
REMARK  109  A    between atoms: _271  and  _273
REMARK  110  A    between atoms: _273  and  _274
REMARK  111  A    between atoms: _273  and  _276
REMARK  112  A    between atoms: _276  and  _277
REMARK  113  A    between atoms: _277  and  _278
REMARK  114  A    between atoms: _283  and  _285
REMARK  115  A    between atoms: _285  and  _286
REMARK  116  A    between atoms: _285  and  _288
REMARK  117  A    between atoms: _288  and  _289
REMARK  118  A    between atoms: _289  and  _290
REMARK  119  A    between atoms: _290  and  _291
REMARK  120  A    between atoms: _300  and  _302
REMARK  121  A    between atoms: _302  and  _303
REMARK  122  A    between atoms: _302  and  _305
REMARK  123  A    between atoms: _305  and  _306
REMARK  124  A    between atoms: _306  and  _307
REMARK  125  A    between atoms: _307  and  _308
REMARK  126  A    between atoms: _317  and  _319
REMARK  127  A    between atoms: _319  and  _320
REMARK  128  A    between atoms: _319  and  _322
REMARK  129  A    between atoms: _322  and  _323
REMARK  130  A    between atoms: _328  and  _329
REMARK  131  A    between atoms: _331  and  _333
REMARK  132  A    between atoms: _333  and  _334
REMARK  133  A    between atoms: _333  and  _336
REMARK  134  A    between atoms: _336  and  _337
REMARK  135  A    between atoms: _337  and  _338
REMARK  136  A    between atoms: _338  and  _340
REMARK  137  A    between atoms: _340  and  MG_514
REMARK  138  A    between atoms: _341  and  _343
REMARK  139  A    between atoms: _343  and  _344
REMARK  140  A    between atoms: _343  and  _346
REMARK  141  A    between atoms: _346  and  _347
REMARK  142  A    between atoms: _353  and  _355
REMARK  143  A    between atoms: _355  and  _356
REMARK  144  A    between atoms: _355  and  _358
REMARK  145  A    between atoms: _358  and  _359
REMARK  146  A    between atoms: _364  and  _365
REMARK  147  A    between atoms: _367  and  _369
REMARK  148  A    between atoms: _369  and  _370
REMARK  149  A    between atoms: _373  and  _375
REMARK  150  A    between atoms: _375  and  _376
REMARK  151  A    between atoms: _375  and  _378
REMARK  152  A    between atoms: _381  and  _383
REMARK  153  A    between atoms: _393  and  _396
REMARK  154  A    between atoms: _396  and  _397
REMARK  155  A    between atoms: _404  and  _405
REMARK  156  A    between atoms: _412  and  _414
REMARK  157  A    between atoms: _414  and  _415
REMARK  158  A    between atoms: _414  and  _417
REMARK  159  A    between atoms: _420  and  _422
REMARK  160  A    between atoms: _422  and  _423
REMARK  161  A    between atoms: _422  and  _425
REMARK  162  A    between atoms: _428  and  _429
REMARK  163  A    between atoms: _434  and  _436
REMARK  164  A    between atoms: _436  and  _437
REMARK  165  A    between atoms: _436  and  _439
REMARK  166  A    between atoms: _442  and  _444
REMARK  167  A    between atoms: _444  and  _445
REMARK  168  A    between atoms: _444  and  _447
REMARK  169  A    between atoms: _447  and  _448
REMARK  170  A    between atoms: _451  and  _453
REMARK  171  A    between atoms: _453  and  _454
REMARK  172  A    between atoms: _453  and  _456
REMARK  173  A    between atoms: _456  and  _457
REMARK  174  A    between atoms: _457  and  _458
REMARK  175  A    between atoms: _461  and  _463
REMARK  176  A    between atoms: _463  and  _464
REMARK  177  A    between atoms: _463  and  _466
REMARK  178  A    between atoms: _466  and  _467
REMARK  179  A    between atoms: _470  and  _471
REMARK  180  A    between atoms: _476  and  _478
REMARK  181  A    between atoms: _478  and  _479
REMARK  182  A    between atoms: _478  and  _481
REMARK  183  A    between atoms: _481  and  _482
REMARK  184  A    between atoms: _492  and  _494
REMARK  185  A    between atoms: _494  and  _495
REMARK  186  A    between atoms: _494  and  _497
REMARK  187  A    between atoms: _497  and  _498
REMARK  188  A    between atoms: _498  and  _499
REMARK  189  A    between atoms: _501  and  _503
REMARK  190  A    between atoms: _503  and  _504
REMARK  191  A    between atoms: _503  and  _506
REMARK  192  A    between atoms: _506  and  _507
REMARK  193  A    between atoms: _507  and  _508
REMARK                            x       y       z     vdW  Elec       q    Type
REMARK                         _______ _______ _______ _____ _____    ______ ____
ROOT
ATOM      1  O   HOH     1      12.542   8.222  16.675  0.00  0.00    +0.000 OA
ENDROOT
TORSDOF 0
REMARK  Name = ../refined-set-2016/1q54/1q54_pocket.pdb
REMARK  193 active torsions:
REMARK  status: ('A' for Active; 'I' for Inactive)
REMARK    1  A    between atoms: _1  and  _5
REMARK    2  A    between atoms: _5  and  _6
REMARK    3  A    between atoms: _5  and  _8
REMARK    4  A    between atoms: _8  and  _9
REMARK    5  A    between atoms: _9  and  _10
REMARK    6  A    between atoms: _13  and  _15
REMARK    7  A    between atoms: _15  and  _16
REMARK    8  A    between atoms: _15  and  _18
REMARK    9  A    between atoms: _18  and  _19
REMARK   10  A    between atoms: _24  and  _26
REMARK   11  A    between atoms: _26  and  _27
REMARK   12  A    between atoms: _26  and  _29
REMARK   13  A    between atoms: _32  and  _34
REMARK   14  A    between atoms: _34  and  _35
REMARK   15  A    between atoms: _34  and  _37
REMARK   16  A    between atoms: _37  and  _38
REMARK   17  A    between atoms: _38  and  _39
REMARK   18  A    between atoms: _39  and  _40
REMARK   19  A    between atoms: _40  and  _41
REMARK   20  A    between atoms: _45  and  _47
REMARK   21  A    between atoms: _47  and  _48
REMARK   22  A    between atoms: _47  and  _50
REMARK   23  A    between atoms: _50  and  _51
REMARK   24  A    between atoms: _55  and  MN_513
REMARK   25  A    between atoms: _56  and  _58
REMARK   26  A    between atoms: _58  and  _59
REMARK   27  A    between atoms: _58  and  _61
REMARK   28  A    between atoms: _61  and  _62
REMARK   29  A    between atoms: _66  and  MN_513
REMARK   30  A    between atoms: _67  and  _69
REMARK   31  A    between atoms: _69  and  _70
REMARK   32  A    between atoms: _69  and  _72
REMARK   33  A    between atoms: _72  and  _73
REMARK   34  A    between atoms: _76  and  _78
REMARK   35  A    between atoms: _78  and  _79
REMARK   36  A    between atoms: _82  and  _84
REMARK   37  A    between atoms: _84  and  _85
REMARK   38  A    between atoms: _84  and  _87
REMARK   39  A    between atoms: _87  and  _88
REMARK   40  A    between atoms: _94  and  _96
REMARK   41  A    between atoms: _96  and  _97
REMARK   42  A    between atoms: _96  and  _99
REMARK   43  A    between atoms: _99  and  _100
REMARK   44  A    between atoms: _102  and  _104
REMARK   45  A    between atoms: _104  and  _105
REMARK   46  A    between atoms: _104  and  _107
REMARK   47  A    between atoms: _107  and  _108
REMARK   48  A    between atoms: _110  and  _112
REMARK   49  A    between atoms: _112  and  _113
REMARK   50  A    between atoms: _112  and  _115
REMARK   51  A    between atoms: _115  and  _116
REMARK   52  A    between atoms: _126  and  _128
REMARK   53  A    between atoms: _128  and  _129
REMARK   54  A    between atoms: _128  and  _131
REMARK   55  A    between atoms: _131  and  _132
REMARK   56  A    between atoms: _135  and  _137
REMARK   57  A    between atoms: _137  and  _138
REMARK   58  A    between atoms: _137  and  _140
REMARK   59  A    between atoms: _140  and  _141
REMARK   60  A    between atoms: _141  and  _142
REMARK   61  A    between atoms: _142  and  _143
REMARK   62  A    between atoms: _152  and  _154
REMARK   63  A    between atoms: _154  and  _155
REMARK   64  A    between atoms: _158  and  _160
REMARK   65  A    between atoms: _160  and  _161
REMARK   66  A    between atoms: _160  and  _163
REMARK   67  A    between atoms: _163  and  _164
REMARK   68  A    between atoms: _164  and  _165
REMARK   69  A    between atoms: _165  and  _166
REMARK   70  A    between atoms: _166  and  _167
REMARK   71  A    between atoms: _171  and  _173
REMARK   72  A    between atoms: _173  and  _174
REMARK   73  A    between atoms: _173  and  _176
REMARK   74  A    between atoms: _176  and  _177
REMARK   75  A    between atoms: _177  and  _178
REMARK   76  A    between atoms: _178  and  _179
REMARK   77  A    between atoms: _179  and  _180
REMARK   78  A    between atoms: _184  and  _186
REMARK   79  A    between atoms: _186  and  _187
REMARK   80  A    between atoms: _190  and  _192
REMARK   81  A    between atoms: _192  and  _193
REMARK   82  A    between atoms: _192  and  _195
REMARK   83  A    between atoms: _195  and  _196
REMARK   84  A    between atoms: _206  and  _208
REMARK   85  A    between atoms: _208  and  _209
REMARK   86  A    between atoms: _208  and  _211
REMARK   87  A    between atoms: _211  and  _212
REMARK   88  A    between atoms: _215  and  _217
REMARK   89  A    between atoms: _217  and  _218
REMARK   90  A    between atoms: _217  and  _220
REMARK   91  A    between atoms: _220  and  _221
REMARK   92  A    between atoms: _226  and  _228
REMARK   93  A    between atoms: _228  and  _229
REMARK   94  A    between atoms: _228  and  _231
REMARK   95  A    between atoms: _231  and  _232
REMARK   96  A    between atoms: _234  and  _236
REMARK   97  A    between atoms: _236  and  _237
REMARK   98  A    between atoms: _236  and  _239
REMARK   99  A    between atoms: _242  and  _244
REMARK  100  A    between atoms: _244  and  _245
REMARK  101  A    between atoms: _248  and  _250
REMARK  102  A    between atoms: _250  and  _251
REMARK  103  A    between atoms: _253  and  _255
REMARK  104  A    between atoms: _255  and  _256
REMARK  105  A    between atoms: _255  and  _258
REMARK  106  A    between atoms: _258  and  _259
REMARK  107  A    between atoms: _263  and  MN_513
REMARK  108  A    between atoms: _265  and  _266
REMARK  109  A    between atoms: _271  and  _273
REMARK  110  A    between atoms: _273  and  _274
REMARK  111  A    between atoms: _273  and  _276
REMARK  112  A    between atoms: _276  and  _277
REMARK  113  A    between atoms: _277  and  _278
REMARK  114  A    between atoms: _283  and  _285
REMARK  115  A    between atoms: _285  and  _286
REMARK  116  A    between atoms: _285  and  _288
REMARK  117  A    between atoms: _288  and  _289
REMARK  118  A    between atoms: _289  and  _290
REMARK  119  A    between atoms: _290  and  _291
REMARK  120  A    between atoms: _300  and  _302
REMARK  121  A    between atoms: _302  and  _303
REMARK  122  A    between atoms: _302  and  _305
REMARK  123  A    between atoms: _305  and  _306
REMARK  124  A    between atoms: _306  and  _307
REMARK  125  A    between atoms: _307  and  _308
REMARK  126  A    between atoms: _317  and  _319
REMARK  127  A    between atoms: _319  and  _320
REMARK  128  A    between atoms: _319  and  _322
REMARK  129  A    between atoms: _322  and  _323
REMARK  130  A    between atoms: _328  and  _329
REMARK  131  A    between atoms: _331  and  _333
REMARK  132  A    between atoms: _333  and  _334
REMARK  133  A    between atoms: _333  and  _336
REMARK  134  A    between atoms: _336  and  _337
REMARK  135  A    between atoms: _337  and  _338
REMARK  136  A    between atoms: _338  and  _340
REMARK  137  A    between atoms: _340  and  MG_514
REMARK  138  A    between atoms: _341  and  _343
REMARK  139  A    between atoms: _343  and  _344
REMARK  140  A    between atoms: _343  and  _346
REMARK  141  A    between atoms: _346  and  _347
REMARK  142  A    between atoms: _353  and  _355
REMARK  143  A    between atoms: _355  and  _356
REMARK  144  A    between atoms: _355  and  _358
REMARK  145  A    between atoms: _358  and  _359
REMARK  146  A    between atoms: _364  and  _365
REMARK  147  A    between atoms: _367  and  _369
REMARK  148  A    between atoms: _369  and  _370
REMARK  149  A    between atoms: _373  and  _375
REMARK  150  A    between atoms: _375  and  _376
REMARK  151  A    between atoms: _375  and  _378
REMARK  152  A    between atoms: _381  and  _383
REMARK  153  A    between atoms: _393  and  _396
REMARK  154  A    between atoms: _396  and  _397
REMARK  155  A    between atoms: _404  and  _405
REMARK  156  A    between atoms: _412  and  _414
REMARK  157  A    between atoms: _414  and  _415
REMARK  158  A    between atoms: _414  and  _417
REMARK  159  A    between atoms: _420  and  _422
REMARK  160  A    between atoms: _422  and  _423
REMARK  161  A    between atoms: _422  and  _425
REMARK  162  A    between atoms: _428  and  _429
REMARK  163  A    between atoms: _434  and  _436
REMARK  164  A    between atoms: _436  and  _437
REMARK  165  A    between atoms: _436  and  _439
REMARK  166  A    between atoms: _442  and  _444
REMARK  167  A    between atoms: _444  and  _445
REMARK  168  A    between atoms: _444  and  _447
REMARK  169  A    between atoms: _447  and  _448
REMARK  170  A    between atoms: _451  and  _453
REMARK  171  A    between atoms: _453  and  _454
REMARK  172  A    between atoms: _453  and  _456
REMARK  173  A    between atoms: _456  and  _457
REMARK  174  A    between atoms: _457  and  _458
REMARK  175  A    between atoms: _461  and  _463
REMARK  176  A    between atoms: _463  and  _464
REMARK  177  A    between atoms: _463  and  _466
REMARK  178  A    between atoms: _466  and  _467
REMARK  179  A    between atoms: _470  and  _471
REMARK  180  A    between atoms: _476  and  _478
REMARK  181  A    between atoms: _478  and  _479
REMARK  182  A    between atoms: _478  and  _481
REMARK  183  A    between atoms: _481  and  _482
REMARK  184  A    between atoms: _492  and  _494
REMARK  185  A    between atoms: _494  and  _495
REMARK  186  A    between atoms: _494  and  _497
REMARK  187  A    between atoms: _497  and  _498
REMARK  188  A    between atoms: _498  and  _499
REMARK  189  A    between atoms: _501  and  _503
REMARK  190  A    between atoms: _503  and  _504
REMARK  191  A    between atoms: _503  and  _506
REMARK  192  A    between atoms: _506  and  _507
REMARK  193  A    between atoms: _507  and  _508
REMARK                            x       y       z     vdW  Elec       q    Type
REMARK                         _______ _______ _______ _____ _____    ______ ____
ROOT
ATOM      1  O   HOH     1      14.512  -3.850   8.796  0.00  0.00    +0.000 OA
ENDROOT
TORSDOF 0
REMARK  Name = ../refined-set-2016/1q54/1q54_pocket.pdb
REMARK  193 active torsions:
REMARK  status: ('A' for Active; 'I' for Inactive)
REMARK    1  A    between atoms: _1  and  _5
REMARK    2  A    between atoms: _5  and  _6
REMARK    3  A    between atoms: _5  and  _8
REMARK    4  A    between atoms: _8  and  _9
REMARK    5  A    between atoms: _9  and  _10
REMARK    6  A    between atoms: _13  and  _15
REMARK    7  A    between atoms: _15  and  _16
REMARK    8  A    between atoms: _15  and  _18
REMARK    9  A    between atoms: _18  and  _19
REMARK   10  A    between atoms: _24  and  _26
REMARK   11  A    between atoms: _26  and  _27
REMARK   12  A    between atoms: _26  and  _29
REMARK   13  A    between atoms: _32  and  _34
REMARK   14  A    between atoms: _34  and  _35
REMARK   15  A    between atoms: _34  and  _37
REMARK   16  A    between atoms: _37  and  _38
REMARK   17  A    between atoms: _38  and  _39
REMARK   18  A    between atoms: _39  and  _40
REMARK   19  A    between atoms: _40  and  _41
REMARK   20  A    between atoms: _45  and  _47
REMARK   21  A    between atoms: _47  and  _48
REMARK   22  A    between atoms: _47  and  _50
REMARK   23  A    between atoms: _50  and  _51
REMARK   24  A    between atoms: _55  and  MN_513
REMARK   25  A    between atoms: _56  and  _58
REMARK   26  A    between atoms: _58  and  _59
REMARK   27  A    between atoms: _58  and  _61
REMARK   28  A    between atoms: _61  and  _62
REMARK   29  A    between atoms: _66  and  MN_513
REMARK   30  A    between atoms: _67  and  _69
REMARK   31  A    between atoms: _69  and  _70
REMARK   32  A    between atoms: _69  and  _72
REMARK   33  A    between atoms: _72  and  _73
REMARK   34  A    between atoms: _76  and  _78
REMARK   35  A    between atoms: _78  and  _79
REMARK   36  A    between atoms: _82  and  _84
REMARK   37  A    between atoms: _84  and  _85
REMARK   38  A    between atoms: _84  and  _87
REMARK   39  A    between atoms: _87  and  _88
REMARK   40  A    between atoms: _94  and  _96
REMARK   41  A    between atoms: _96  and  _97
REMARK   42  A    between atoms: _96  and  _99
REMARK   43  A    between atoms: _99  and  _100
REMARK   44  A    between atoms: _102  and  _104
REMARK   45  A    between atoms: _104  and  _105
REMARK   46  A    between atoms: _104  and  _107
REMARK   47  A    between atoms: _107  and  _108
REMARK   48  A    between atoms: _110  and  _112
REMARK   49  A    between atoms: _112  and  _113
REMARK   50  A    between atoms: _112  and  _115
REMARK   51  A    between atoms: _115  and  _116
REMARK   52  A    between atoms: _126  and  _128
REMARK   53  A    between atoms: _128  and  _129
REMARK   54  A    between atoms: _128  and  _131
REMARK   55  A    between atoms: _131  and  _132
REMARK   56  A    between atoms: _135  and  _137
REMARK   57  A    between atoms: _137  and  _138
REMARK   58  A    between atoms: _137  and  _140
REMARK   59  A    between atoms: _140  and  _141
REMARK   60  A    between atoms: _141  and  _142
REMARK   61  A    between atoms: _142  and  _143
REMARK   62  A    between atoms: _152  and  _154
REMARK   63  A    between atoms: _154  and  _155
REMARK   64  A    between atoms: _158  and  _160
REMARK   65  A    between atoms: _160  and  _161
REMARK   66  A    between atoms: _160  and  _163
REMARK   67  A    between atoms: _163  and  _164
REMARK   68  A    between atoms: _164  and  _165
REMARK   69  A    between atoms: _165  and  _166
REMARK   70  A    between atoms: _166  and  _167
REMARK   71  A    between atoms: _171  and  _173
REMARK   72  A    between atoms: _173  and  _174
REMARK   73  A    between atoms: _173  and  _176
REMARK   74  A    between atoms: _176  and  _177
REMARK   75  A    between atoms: _177  and  _178
REMARK   76  A    between atoms: _178  and  _179
REMARK   77  A    between atoms: _179  and  _180
REMARK   78  A    between atoms: _184  and  _186
REMARK   79  A    between atoms: _186  and  _187
REMARK   80  A    between atoms: _190  and  _192
REMARK   81  A    between atoms: _192  and  _193
REMARK   82  A    between atoms: _192  and  _195
REMARK   83  A    between atoms: _195  and  _196
REMARK   84  A    between atoms: _206  and  _208
REMARK   85  A    between atoms: _208  and  _209
REMARK   86  A    between atoms: _208  and  _211
REMARK   87  A    between atoms: _211  and  _212
REMARK   88  A    between atoms: _215  and  _217
REMARK   89  A    between atoms: _217  and  _218
REMARK   90  A    between atoms: _217  and  _220
REMARK   91  A    between atoms: _220  and  _221
REMARK   92  A    between atoms: _226  and  _228
REMARK   93  A    between atoms: _228  and  _229
REMARK   94  A    between atoms: _228  and  _231
REMARK   95  A    between atoms: _231  and  _232
REMARK   96  A    between atoms: _234  and  _236
REMARK   97  A    between atoms: _236  and  _237
REMARK   98  A    between atoms: _236  and  _239
REMARK   99  A    between atoms: _242  and  _244
REMARK  100  A    between atoms: _244  and  _245
REMARK  101  A    between atoms: _248  and  _250
REMARK  102  A    between atoms: _250  and  _251
REMARK  103  A    between atoms: _253  and  _255
REMARK  104  A    between atoms: _255  and  _256
REMARK  105  A    between atoms: _255  and  _258
REMARK  106  A    between atoms: _258  and  _259
REMARK  107  A    between atoms: _263  and  MN_513
REMARK  108  A    between atoms: _265  and  _266
REMARK  109  A    between atoms: _271  and  _273
REMARK  110  A    between atoms: _273  and  _274
REMARK  111  A    between atoms: _273  and  _276
REMARK  112  A    between atoms: _276  and  _277
REMARK  113  A    between atoms: _277  and  _278
REMARK  114  A    between atoms: _283  and  _285
REMARK  115  A    between atoms: _285  and  _286
REMARK  116  A    between atoms: _285  and  _288
REMARK  117  A    between atoms: _288  and  _289
REMARK  118  A    between atoms: _289  and  _290
REMARK  119  A    between atoms: _290  and  _291
REMARK  120  A    between atoms: _300  and  _302
REMARK  121  A    between atoms: _302  and  _303
REMARK  122  A    between atoms: _302  and  _305
REMARK  123  A    between atoms: _305  and  _306
REMARK  124  A    between atoms: _306  and  _307
REMARK  125  A    between atoms: _307  and  _308
REMARK  126  A    between atoms: _317  and  _319
REMARK  127  A    between atoms: _319  and  _320
REMARK  128  A    between atoms: _319  and  _322
REMARK  129  A    between atoms: _322  and  _323
REMARK  130  A    between atoms: _328  and  _329
REMARK  131  A    between atoms: _331  and  _333
REMARK  132  A    between atoms: _333  and  _334
REMARK  133  A    between atoms: _333  and  _336
REMARK  134  A    between atoms: _336  and  _337
REMARK  135  A    between atoms: _337  and  _338
REMARK  136  A    between atoms: _338  and  _340
REMARK  137  A    between atoms: _340  and  MG_514
REMARK  138  A    between atoms: _341  and  _343
REMARK  139  A    between atoms: _343  and  _344
REMARK  140  A    between atoms: _343  and  _346
REMARK  141  A    between atoms: _346  and  _347
REMARK  142  A    between atoms: _353  and  _355
REMARK  143  A    between atoms: _355  and  _356
REMARK  144  A    between atoms: _355  and  _358
REMARK  145  A    between atoms: _358  and  _359
REMARK  146  A    between atoms: _364  and  _365
REMARK  147  A    between atoms: _367  and  _369
REMARK  148  A    between atoms: _369  and  _370
REMARK  149  A    between atoms: _373  and  _375
REMARK  150  A    between atoms: _375  and  _376
REMARK  151  A    between atoms: _375  and  _378
REMARK  152  A    between atoms: _381  and  _383
REMARK  153  A    between atoms: _393  and  _396
REMARK  154  A    between atoms: _396  and  _397
REMARK  155  A    between atoms: _404  and  _405
REMARK  156  A    between atoms: _412  and  _414
REMARK  157  A    between atoms: _414  and  _415
REMARK  158  A    between atoms: _414  and  _417
REMARK  159  A    between atoms: _420  and  _422
REMARK  160  A    between atoms: _422  and  _423
REMARK  161  A    between atoms: _422  and  _425
REMARK  162  A    between atoms: _428  and  _429
REMARK  163  A    between atoms: _434  and  _436
REMARK  164  A    between atoms: _436  and  _437
REMARK  165  A    between atoms: _436  and  _439
REMARK  166  A    between atoms: _442  and  _444
REMARK  167  A    between atoms: _444  and  _445
REMARK  168  A    between atoms: _444  and  _447
REMARK  169  A    between atoms: _447  and  _448
REMARK  170  A    between atoms: _451  and  _453
REMARK  171  A    between atoms: _453  and  _454
REMARK  172  A    between atoms: _453  and  _456
REMARK  173  A    between atoms: _456  and  _457
REMARK  174  A    between atoms: _457  and  _458
REMARK  175  A    between atoms: _461  and  _463
REMARK  176  A    between atoms: _463  and  _464
REMARK  177  A    between atoms: _463  and  _466
REMARK  178  A    between atoms: _466  and  _467
REMARK  179  A    between atoms: _470  and  _471
REMARK  180  A    between atoms: _476  and  _478
REMARK  181  A    between atoms: _478  and  _479
REMARK  182  A    between atoms: _478  and  _481
REMARK  183  A    between atoms: _481  and  _482
REMARK  184  A    between atoms: _492  and  _494
REMARK  185  A    between atoms: _494  and  _495
REMARK  186  A    between atoms: _494  and  _497
REMARK  187  A    between atoms: _497  and  _498
REMARK  188  A    between atoms: _498  and  _499
REMARK  189  A    between atoms: _501  and  _503
REMARK  190  A    between atoms: _503  and  _504
REMARK  191  A    between atoms: _503  and  _506
REMARK  192  A    between atoms: _506  and  _507
REMARK  193  A    between atoms: _507  and  _508
REMARK                            x       y       z     vdW  Elec       q    Type
REMARK                         _______ _______ _______ _____ _____    ______ ____
ROOT
ATOM      1  O   HOH     1      14.476   0.949  18.121  0.00  0.00    +0.000 OA
ENDROOT
TORSDOF 0
REMARK  Name = ../refined-set-2016/1q54/1q54_pocket.pdb
REMARK  193 active torsions:
REMARK  status: ('A' for Active; 'I' for Inactive)
REMARK    1  A    between atoms: _1  and  _5
REMARK    2  A    between atoms: _5  and  _6
REMARK    3  A    between atoms: _5  and  _8
REMARK    4  A    between atoms: _8  and  _9
REMARK    5  A    between atoms: _9  and  _10
REMARK    6  A    between atoms: _13  and  _15
REMARK    7  A    between atoms: _15  and  _16
REMARK    8  A    between atoms: _15  and  _18
REMARK    9  A    between atoms: _18  and  _19
REMARK   10  A    between atoms: _24  and  _26
REMARK   11  A    between atoms: _26  and  _27
REMARK   12  A    between atoms: _26  and  _29
REMARK   13  A    between atoms: _32  and  _34
REMARK   14  A    between atoms: _34  and  _35
REMARK   15  A    between atoms: _34  and  _37
REMARK   16  A    between atoms: _37  and  _38
REMARK   17  A    between atoms: _38  and  _39
REMARK   18  A    between atoms: _39  and  _40
REMARK   19  A    between atoms: _40  and  _41
REMARK   20  A    between atoms: _45  and  _47
REMARK   21  A    between atoms: _47  and  _48
REMARK   22  A    between atoms: _47  and  _50
REMARK   23  A    between atoms: _50  and  _51
REMARK   24  A    between atoms: _55  and  MN_513
REMARK   25  A    between atoms: _56  and  _58
REMARK   26  A    between atoms: _58  and  _59
REMARK   27  A    between atoms: _58  and  _61
REMARK   28  A    between atoms: _61  and  _62
REMARK   29  A    between atoms: _66  and  MN_513
REMARK   30  A    between atoms: _67  and  _69
REMARK   31  A    between atoms: _69  and  _70
REMARK   32  A    between atoms: _69  and  _72
REMARK   33  A    between atoms: _72  and  _73
REMARK   34  A    between atoms: _76  and  _78
REMARK   35  A    between atoms: _78  and  _79
REMARK   36  A    between atoms: _82  and  _84
REMARK   37  A    between atoms: _84  and  _85
REMARK   38  A    between atoms: _84  and  _87
REMARK   39  A    between atoms: _87  and  _88
REMARK   40  A    between atoms: _94  and  _96
REMARK   41  A    between atoms: _96  and  _97
REMARK   42  A    between atoms: _96  and  _99
REMARK   43  A    between atoms: _99  and  _100
REMARK   44  A    between atoms: _102  and  _104
REMARK   45  A    between atoms: _104  and  _105
REMARK   46  A    between atoms: _104  and  _107
REMARK   47  A    between atoms: _107  and  _108
REMARK   48  A    between atoms: _110  and  _112
REMARK   49  A    between atoms: _112  and  _113
REMARK   50  A    between atoms: _112  and  _115
REMARK   51  A    between atoms: _115  and  _116
REMARK   52  A    between atoms: _126  and  _128
REMARK   53  A    between atoms: _128  and  _129
REMARK   54  A    between atoms: _128  and  _131
REMARK   55  A    between atoms: _131  and  _132
REMARK   56  A    between atoms: _135  and  _137
REMARK   57  A    between atoms: _137  and  _138
REMARK   58  A    between atoms: _137  and  _140
REMARK   59  A    between atoms: _140  and  _141
REMARK   60  A    between atoms: _141  and  _142
REMARK   61  A    between atoms: _142  and  _143
REMARK   62  A    between atoms: _152  and  _154
REMARK   63  A    between atoms: _154  and  _155
REMARK   64  A    between atoms: _158  and  _160
REMARK   65  A    between atoms: _160  and  _161
REMARK   66  A    between atoms: _160  and  _163
REMARK   67  A    between atoms: _163  and  _164
REMARK   68  A    between atoms: _164  and  _165
REMARK   69  A    between atoms: _165  and  _166
REMARK   70  A    between atoms: _166  and  _167
REMARK   71  A    between atoms: _171  and  _173
REMARK   72  A    between atoms: _173  and  _174
REMARK   73  A    between atoms: _173  and  _176
REMARK   74  A    between atoms: _176  and  _177
REMARK   75  A    between atoms: _177  and  _178
REMARK   76  A    between atoms: _178  and  _179
REMARK   77  A    between atoms: _179  and  _180
REMARK   78  A    between atoms: _184  and  _186
REMARK   79  A    between atoms: _186  and  _187
REMARK   80  A    between atoms: _190  and  _192
REMARK   81  A    between atoms: _192  and  _193
REMARK   82  A    between atoms: _192  and  _195
REMARK   83  A    between atoms: _195  and  _196
REMARK   84  A    between atoms: _206  and  _208
REMARK   85  A    between atoms: _208  and  _209
REMARK   86  A    between atoms: _208  and  _211
REMARK   87  A    between atoms: _211  and  _212
REMARK   88  A    between atoms: _215  and  _217
REMARK   89  A    between atoms: _217  and  _218
REMARK   90  A    between atoms: _217  and  _220
REMARK   91  A    between atoms: _220  and  _221
REMARK   92  A    between atoms: _226  and  _228
REMARK   93  A    between atoms: _228  and  _229
REMARK   94  A    between atoms: _228  and  _231
REMARK   95  A    between atoms: _231  and  _232
REMARK   96  A    between atoms: _234  and  _236
REMARK   97  A    between atoms: _236  and  _237
REMARK   98  A    between atoms: _236  and  _239
REMARK   99  A    between atoms: _242  and  _244
REMARK  100  A    between atoms: _244  and  _245
REMARK  101  A    between atoms: _248  and  _250
REMARK  102  A    between atoms: _250  and  _251
REMARK  103  A    between atoms: _253  and  _255
REMARK  104  A    between atoms: _255  and  _256
REMARK  105  A    between atoms: _255  and  _258
REMARK  106  A    between atoms: _258  and  _259
REMARK  107  A    between atoms: _263  and  MN_513
REMARK  108  A    between atoms: _265  and  _266
REMARK  109  A    between atoms: _271  and  _273
REMARK  110  A    between atoms: _273  and  _274
REMARK  111  A    between atoms: _273  and  _276
REMARK  112  A    between atoms: _276  and  _277
REMARK  113  A    between atoms: _277  and  _278
REMARK  114  A    between atoms: _283  and  _285
REMARK  115  A    between atoms: _285  and  _286
REMARK  116  A    between atoms: _285  and  _288
REMARK  117  A    between atoms: _288  and  _289
REMARK  118  A    between atoms: _289  and  _290
REMARK  119  A    between atoms: _290  and  _291
REMARK  120  A    between atoms: _300  and  _302
REMARK  121  A    between atoms: _302  and  _303
REMARK  122  A    between atoms: _302  and  _305
REMARK  123  A    between atoms: _305  and  _306
REMARK  124  A    between atoms: _306  and  _307
REMARK  125  A    between atoms: _307  and  _308
REMARK  126  A    between atoms: _317  and  _319
REMARK  127  A    between atoms: _319  and  _320
REMARK  128  A    between atoms: _319  and  _322
REMARK  129  A    between atoms: _322  and  _323
REMARK  130  A    between atoms: _328  and  _329
REMARK  131  A    between atoms: _331  and  _333
REMARK  132  A    between atoms: _333  and  _334
REMARK  133  A    between atoms: _333  and  _336
REMARK  134  A    between atoms: _336  and  _337
REMARK  135  A    between atoms: _337  and  _338
REMARK  136  A    between atoms: _338  and  _340
REMARK  137  A    between atoms: _340  and  MG_514
REMARK  138  A    between atoms: _341  and  _343
REMARK  139  A    between atoms: _343  and  _344
REMARK  140  A    between atoms: _343  and  _346
REMARK  141  A    between atoms: _346  and  _347
REMARK  142  A    between atoms: _353  and  _355
REMARK  143  A    between atoms: _355  and  _356
REMARK  144  A    between atoms: _355  and  _358
REMARK  145  A    between atoms: _358  and  _359
REMARK  146  A    between atoms: _364  and  _365
REMARK  147  A    between atoms: _367  and  _369
REMARK  148  A    between atoms: _369  and  _370
REMARK  149  A    between atoms: _373  and  _375
REMARK  150  A    between atoms: _375  and  _376
REMARK  151  A    between atoms: _375  and  _378
REMARK  152  A    between atoms: _381  and  _383
REMARK  153  A    between atoms: _393  and  _396
REMARK  154  A    between atoms: _396  and  _397
REMARK  155  A    between atoms: _404  and  _405
REMARK  156  A    between atoms: _412  and  _414
REMARK  157  A    between atoms: _414  and  _415
REMARK  158  A    between atoms: _414  and  _417
REMARK  159  A    between atoms: _420  and  _422
REMARK  160  A    between atoms: _422  and  _423
REMARK  161  A    between atoms: _422  and  _425
REMARK  162  A    between atoms: _428  and  _429
REMARK  163  A    between atoms: _434  and  _436
REMARK  164  A    between atoms: _436  and  _437
REMARK  165  A    between atoms: _436  and  _439
REMARK  166  A    between atoms: _442  and  _444
REMARK  167  A    between atoms: _444  and  _445
REMARK  168  A    between atoms: _444  and  _447
REMARK  169  A    between atoms: _447  and  _448
REMARK  170  A    between atoms: _451  and  _453
REMARK  171  A    between atoms: _453  and  _454
REMARK  172  A    between atoms: _453  and  _456
REMARK  173  A    between atoms: _456  and  _457
REMARK  174  A    between atoms: _457  and  _458
REMARK  175  A    between atoms: _461  and  _463
REMARK  176  A    between atoms: _463  and  _464
REMARK  177  A    between atoms: _463  and  _466
REMARK  178  A    between atoms: _466  and  _467
REMARK  179  A    between atoms: _470  and  _471
REMARK  180  A    between atoms: _476  and  _478
REMARK  181  A    between atoms: _478  and  _479
REMARK  182  A    between atoms: _478  and  _481
REMARK  183  A    between atoms: _481  and  _482
REMARK  184  A    between atoms: _492  and  _494
REMARK  185  A    between atoms: _494  and  _495
REMARK  186  A    between atoms: _494  and  _497
REMARK  187  A    between atoms: _497  and  _498
REMARK  188  A    between atoms: _498  and  _499
REMARK  189  A    between atoms: _501  and  _503
REMARK  190  A    between atoms: _503  and  _504
REMARK  191  A    between atoms: _503  and  _506
REMARK  192  A    between atoms: _506  and  _507
REMARK  193  A    between atoms: _507  and  _508
REMARK                            x       y       z     vdW  Elec       q    Type
REMARK                         _______ _______ _______ _____ _____    ______ ____
ROOT
ATOM      1  O   HOH     1      17.395  -0.178   7.880  0.00  0.00    +0.000 OA
ENDROOT
TORSDOF 0
REMARK  Name = ../refined-set-2016/1q54/1q54_pocket.pdb
REMARK  193 active torsions:
REMARK  status: ('A' for Active; 'I' for Inactive)
REMARK    1  A    between atoms: _1  and  _5
REMARK    2  A    between atoms: _5  and  _6
REMARK    3  A    between atoms: _5  and  _8
REMARK    4  A    between atoms: _8  and  _9
REMARK    5  A    between atoms: _9  and  _10
REMARK    6  A    between atoms: _13  and  _15
REMARK    7  A    between atoms: _15  and  _16
REMARK    8  A    between atoms: _15  and  _18
REMARK    9  A    between atoms: _18  and  _19
REMARK   10  A    between atoms: _24  and  _26
REMARK   11  A    between atoms: _26  and  _27
REMARK   12  A    between atoms: _26  and  _29
REMARK   13  A    between atoms: _32  and  _34
REMARK   14  A    between atoms: _34  and  _35
REMARK   15  A    between atoms: _34  and  _37
REMARK   16  A    between atoms: _37  and  _38
REMARK   17  A    between atoms: _38  and  _39
REMARK   18  A    between atoms: _39  and  _40
REMARK   19  A    between atoms: _40  and  _41
REMARK   20  A    between atoms: _45  and  _47
REMARK   21  A    between atoms: _47  and  _48
REMARK   22  A    between atoms: _47  and  _50
REMARK   23  A    between atoms: _50  and  _51
REMARK   24  A    between atoms: _55  and  MN_513
REMARK   25  A    between atoms: _56  and  _58
REMARK   26  A    between atoms: _58  and  _59
REMARK   27  A    between atoms: _58  and  _61
REMARK   28  A    between atoms: _61  and  _62
REMARK   29  A    between atoms: _66  and  MN_513
REMARK   30  A    between atoms: _67  and  _69
REMARK   31  A    between atoms: _69  and  _70
REMARK   32  A    between atoms: _69  and  _72
REMARK   33  A    between atoms: _72  and  _73
REMARK   34  A    between atoms: _76  and  _78
REMARK   35  A    between atoms: _78  and  _79
REMARK   36  A    between atoms: _82  and  _84
REMARK   37  A    between atoms: _84  and  _85
REMARK   38  A    between atoms: _84  and  _87
REMARK   39  A    between atoms: _87  and  _88
REMARK   40  A    between atoms: _94  and  _96
REMARK   41  A    between atoms: _96  and  _97
REMARK   42  A    between atoms: _96  and  _99
REMARK   43  A    between atoms: _99  and  _100
REMARK   44  A    between atoms: _102  and  _104
REMARK   45  A    between atoms: _104  and  _105
REMARK   46  A    between atoms: _104  and  _107
REMARK   47  A    between atoms: _107  and  _108
REMARK   48  A    between atoms: _110  and  _112
REMARK   49  A    between atoms: _112  and  _113
REMARK   50  A    between atoms: _112  and  _115
REMARK   51  A    between atoms: _115  and  _116
REMARK   52  A    between atoms: _126  and  _128
REMARK   53  A    between atoms: _128  and  _129
REMARK   54  A    between atoms: _128  and  _131
REMARK   55  A    between atoms: _131  and  _132
REMARK   56  A    between atoms: _135  and  _137
REMARK   57  A    between atoms: _137  and  _138
REMARK   58  A    between atoms: _137  and  _140
REMARK   59  A    between atoms: _140  and  _141
REMARK   60  A    between atoms: _141  and  _142
REMARK   61  A    between atoms: _142  and  _143
REMARK   62  A    between atoms: _152  and  _154
REMARK   63  A    between atoms: _154  and  _155
REMARK   64  A    between atoms: _158  and  _160
REMARK   65  A    between atoms: _160  and  _161
REMARK   66  A    between atoms: _160  and  _163
REMARK   67  A    between atoms: _163  and  _164
REMARK   68  A    between atoms: _164  and  _165
REMARK   69  A    between atoms: _165  and  _166
REMARK   70  A    between atoms: _166  and  _167
REMARK   71  A    between atoms: _171  and  _173
REMARK   72  A    between atoms: _173  and  _174
REMARK   73  A    between atoms: _173  and  _176
REMARK   74  A    between atoms: _176  and  _177
REMARK   75  A    between atoms: _177  and  _178
REMARK   76  A    between atoms: _178  and  _179
REMARK   77  A    between atoms: _179  and  _180
REMARK   78  A    between atoms: _184  and  _186
REMARK   79  A    between atoms: _186  and  _187
REMARK   80  A    between atoms: _190  and  _192
REMARK   81  A    between atoms: _192  and  _193
REMARK   82  A    between atoms: _192  and  _195
REMARK   83  A    between atoms: _195  and  _196
REMARK   84  A    between atoms: _206  and  _208
REMARK   85  A    between atoms: _208  and  _209
REMARK   86  A    between atoms: _208  and  _211
REMARK   87  A    between atoms: _211  and  _212
REMARK   88  A    between atoms: _215  and  _217
REMARK   89  A    between atoms: _217  and  _218
REMARK   90  A    between atoms: _217  and  _220
REMARK   91  A    between atoms: _220  and  _221
REMARK   92  A    between atoms: _226  and  _228
REMARK   93  A    between atoms: _228  and  _229
REMARK   94  A    between atoms: _228  and  _231
REMARK   95  A    between atoms: _231  and  _232
REMARK   96  A    between atoms: _234  and  _236
REMARK   97  A    between atoms: _236  and  _237
REMARK   98  A    between atoms: _236  and  _239
REMARK   99  A    between atoms: _242  and  _244
REMARK  100  A    between atoms: _244  and  _245
REMARK  101  A    between atoms: _248  and  _250
REMARK  102  A    between atoms: _250  and  _251
REMARK  103  A    between atoms: _253  and  _255
REMARK  104  A    between atoms: _255  and  _256
REMARK  105  A    between atoms: _255  and  _258
REMARK  106  A    between atoms: _258  and  _259
REMARK  107  A    between atoms: _263  and  MN_513
REMARK  108  A    between atoms: _265  and  _266
REMARK  109  A    between atoms: _271  and  _273
REMARK  110  A    between atoms: _273  and  _274
REMARK  111  A    between atoms: _273  and  _276
REMARK  112  A    between atoms: _276  and  _277
REMARK  113  A    between atoms: _277  and  _278
REMARK  114  A    between atoms: _283  and  _285
REMARK  115  A    between atoms: _285  and  _286
REMARK  116  A    between atoms: _285  and  _288
REMARK  117  A    between atoms: _288  and  _289
REMARK  118  A    between atoms: _289  and  _290
REMARK  119  A    between atoms: _290  and  _291
REMARK  120  A    between atoms: _300  and  _302
REMARK  121  A    between atoms: _302  and  _303
REMARK  122  A    between atoms: _302  and  _305
REMARK  123  A    between atoms: _305  and  _306
REMARK  124  A    between atoms: _306  and  _307
REMARK  125  A    between atoms: _307  and  _308
REMARK  126  A    between atoms: _317  and  _319
REMARK  127  A    between atoms: _319  and  _320
REMARK  128  A    between atoms: _319  and  _322
REMARK  129  A    between atoms: _322  and  _323
REMARK  130  A    between atoms: _328  and  _329
REMARK  131  A    between atoms: _331  and  _333
REMARK  132  A    between atoms: _333  and  _334
REMARK  133  A    between atoms: _333  and  _336
REMARK  134  A    between atoms: _336  and  _337
REMARK  135  A    between atoms: _337  and  _338
REMARK  136  A    between atoms: _338  and  _340
REMARK  137  A    between atoms: _340  and  MG_514
REMARK  138  A    between atoms: _341  and  _343
REMARK  139  A    between atoms: _343  and  _344
REMARK  140  A    between atoms: _343  and  _346
REMARK  141  A    between atoms: _346  and  _347
REMARK  142  A    between atoms: _353  and  _355
REMARK  143  A    between atoms: _355  and  _356
REMARK  144  A    between atoms: _355  and  _358
REMARK  145  A    between atoms: _358  and  _359
REMARK  146  A    between atoms: _364  and  _365
REMARK  147  A    between atoms: _367  and  _369
REMARK  148  A    between atoms: _369  and  _370
REMARK  149  A    between atoms: _373  and  _375
REMARK  150  A    between atoms: _375  and  _376
REMARK  151  A    between atoms: _375  and  _378
REMARK  152  A    between atoms: _381  and  _383
REMARK  153  A    between atoms: _393  and  _396
REMARK  154  A    between atoms: _396  and  _397
REMARK  155  A    between atoms: _404  and  _405
REMARK  156  A    between atoms: _412  and  _414
REMARK  157  A    between atoms: _414  and  _415
REMARK  158  A    between atoms: _414  and  _417
REMARK  159  A    between atoms: _420  and  _422
REMARK  160  A    between atoms: _422  and  _423
REMARK  161  A    between atoms: _422  and  _425
REMARK  162  A    between atoms: _428  and  _429
REMARK  163  A    between atoms: _434  and  _436
REMARK  164  A    between atoms: _436  and  _437
REMARK  165  A    between atoms: _436  and  _439
REMARK  166  A    between atoms: _442  and  _444
REMARK  167  A    between atoms: _444  and  _445
REMARK  168  A    between atoms: _444  and  _447
REMARK  169  A    between atoms: _447  and  _448
REMARK  170  A    between atoms: _451  and  _453
REMARK  171  A    between atoms: _453  and  _454
REMARK  172  A    between atoms: _453  and  _456
REMARK  173  A    between atoms: _456  and  _457
REMARK  174  A    between atoms: _457  and  _458
REMARK  175  A    between atoms: _461  and  _463
REMARK  176  A    between atoms: _463  and  _464
REMARK  177  A    between atoms: _463  and  _466
REMARK  178  A    between atoms: _466  and  _467
REMARK  179  A    between atoms: _470  and  _471
REMARK  180  A    between atoms: _476  and  _478
REMARK  181  A    between atoms: _478  and  _479
REMARK  182  A    between atoms: _478  and  _481
REMARK  183  A    between atoms: _481  and  _482
REMARK  184  A    between atoms: _492  and  _494
REMARK  185  A    between atoms: _494  and  _495
REMARK  186  A    between atoms: _494  and  _497
REMARK  187  A    between atoms: _497  and  _498
REMARK  188  A    between atoms: _498  and  _499
REMARK  189  A    between atoms: _501  and  _503
REMARK  190  A    between atoms: _503  and  _504
REMARK  191  A    between atoms: _503  and  _506
REMARK  192  A    between atoms: _506  and  _507
REMARK  193  A    between atoms: _507  and  _508
REMARK                            x       y       z     vdW  Elec       q    Type
REMARK                         _______ _______ _______ _____ _____    ______ ____
ROOT
ATOM      1  O   HOH     1      12.232  -0.934   8.678  0.00  0.00    +0.000 OA
ENDROOT
TORSDOF 0
REMARK  Name = ../refined-set-2016/1q54/1q54_pocket.pdb
REMARK  193 active torsions:
REMARK  status: ('A' for Active; 'I' for Inactive)
REMARK    1  A    between atoms: _1  and  _5
REMARK    2  A    between atoms: _5  and  _6
REMARK    3  A    between atoms: _5  and  _8
REMARK    4  A    between atoms: _8  and  _9
REMARK    5  A    between atoms: _9  and  _10
REMARK    6  A    between atoms: _13  and  _15
REMARK    7  A    between atoms: _15  and  _16
REMARK    8  A    between atoms: _15  and  _18
REMARK    9  A    between atoms: _18  and  _19
REMARK   10  A    between atoms: _24  and  _26
REMARK   11  A    between atoms: _26  and  _27
REMARK   12  A    between atoms: _26  and  _29
REMARK   13  A    between atoms: _32  and  _34
REMARK   14  A    between atoms: _34  and  _35
REMARK   15  A    between atoms: _34  and  _37
REMARK   16  A    between atoms: _37  and  _38
REMARK   17  A    between atoms: _38  and  _39
REMARK   18  A    between atoms: _39  and  _40
REMARK   19  A    between atoms: _40  and  _41
REMARK   20  A    between atoms: _45  and  _47
REMARK   21  A    between atoms: _47  and  _48
REMARK   22  A    between atoms: _47  and  _50
REMARK   23  A    between atoms: _50  and  _51
REMARK   24  A    between atoms: _55  and  MN_513
REMARK   25  A    between atoms: _56  and  _58
REMARK   26  A    between atoms: _58  and  _59
REMARK   27  A    between atoms: _58  and  _61
REMARK   28  A    between atoms: _61  and  _62
REMARK   29  A    between atoms: _66  and  MN_513
REMARK   30  A    between atoms: _67  and  _69
REMARK   31  A    between atoms: _69  and  _70
REMARK   32  A    between atoms: _69  and  _72
REMARK   33  A    between atoms: _72  and  _73
REMARK   34  A    between atoms: _76  and  _78
REMARK   35  A    between atoms: _78  and  _79
REMARK   36  A    between atoms: _82  and  _84
REMARK   37  A    between atoms: _84  and  _85
REMARK   38  A    between atoms: _84  and  _87
REMARK   39  A    between atoms: _87  and  _88
REMARK   40  A    between atoms: _94  and  _96
REMARK   41  A    between atoms: _96  and  _97
REMARK   42  A    between atoms: _96  and  _99
REMARK   43  A    between atoms: _99  and  _100
REMARK   44  A    between atoms: _102  and  _104
REMARK   45  A    between atoms: _104  and  _105
REMARK   46  A    between atoms: _104  and  _107
REMARK   47  A    between atoms: _107  and  _108
REMARK   48  A    between atoms: _110  and  _112
REMARK   49  A    between atoms: _112  and  _113
REMARK   50  A    between atoms: _112  and  _115
REMARK   51  A    between atoms: _115  and  _116
REMARK   52  A    between atoms: _126  and  _128
REMARK   53  A    between atoms: _128  and  _129
REMARK   54  A    between atoms: _128  and  _131
REMARK   55  A    between atoms: _131  and  _132
REMARK   56  A    between atoms: _135  and  _137
REMARK   57  A    between atoms: _137  and  _138
REMARK   58  A    between atoms: _137  and  _140
REMARK   59  A    between atoms: _140  and  _141
REMARK   60  A    between atoms: _141  and  _142
REMARK   61  A    between atoms: _142  and  _143
REMARK   62  A    between atoms: _152  and  _154
REMARK   63  A    between atoms: _154  and  _155
REMARK   64  A    between atoms: _158  and  _160
REMARK   65  A    between atoms: _160  and  _161
REMARK   66  A    between atoms: _160  and  _163
REMARK   67  A    between atoms: _163  and  _164
REMARK   68  A    between atoms: _164  and  _165
REMARK   69  A    between atoms: _165  and  _166
REMARK   70  A    between atoms: _166  and  _167
REMARK   71  A    between atoms: _171  and  _173
REMARK   72  A    between atoms: _173  and  _174
REMARK   73  A    between atoms: _173  and  _176
REMARK   74  A    between atoms: _176  and  _177
REMARK   75  A    between atoms: _177  and  _178
REMARK   76  A    between atoms: _178  and  _179
REMARK   77  A    between atoms: _179  and  _180
REMARK   78  A    between atoms: _184  and  _186
REMARK   79  A    between atoms: _186  and  _187
REMARK   80  A    between atoms: _190  and  _192
REMARK   81  A    between atoms: _192  and  _193
REMARK   82  A    between atoms: _192  and  _195
REMARK   83  A    between atoms: _195  and  _196
REMARK   84  A    between atoms: _206  and  _208
REMARK   85  A    between atoms: _208  and  _209
REMARK   86  A    between atoms: _208  and  _211
REMARK   87  A    between atoms: _211  and  _212
REMARK   88  A    between atoms: _215  and  _217
REMARK   89  A    between atoms: _217  and  _218
REMARK   90  A    between atoms: _217  and  _220
REMARK   91  A    between atoms: _220  and  _221
REMARK   92  A    between atoms: _226  and  _228
REMARK   93  A    between atoms: _228  and  _229
REMARK   94  A    between atoms: _228  and  _231
REMARK   95  A    between atoms: _231  and  _232
REMARK   96  A    between atoms: _234  and  _236
REMARK   97  A    between atoms: _236  and  _237
REMARK   98  A    between atoms: _236  and  _239
REMARK   99  A    between atoms: _242  and  _244
REMARK  100  A    between atoms: _244  and  _245
REMARK  101  A    between atoms: _248  and  _250
REMARK  102  A    between atoms: _250  and  _251
REMARK  103  A    between atoms: _253  and  _255
REMARK  104  A    between atoms: _255  and  _256
REMARK  105  A    between atoms: _255  and  _258
REMARK  106  A    between atoms: _258  and  _259
REMARK  107  A    between atoms: _263  and  MN_513
REMARK  108  A    between atoms: _265  and  _266
REMARK  109  A    between atoms: _271  and  _273
REMARK  110  A    between atoms: _273  and  _274
REMARK  111  A    between atoms: _273  and  _276
REMARK  112  A    between atoms: _276  and  _277
REMARK  113  A    between atoms: _277  and  _278
REMARK  114  A    between atoms: _283  and  _285
REMARK  115  A    between atoms: _285  and  _286
REMARK  116  A    between atoms: _285  and  _288
REMARK  117  A    between atoms: _288  and  _289
REMARK  118  A    between atoms: _289  and  _290
REMARK  119  A    between atoms: _290  and  _291
REMARK  120  A    between atoms: _300  and  _302
REMARK  121  A    between atoms: _302  and  _303
REMARK  122  A    between atoms: _302  and  _305
REMARK  123  A    between atoms: _305  and  _306
REMARK  124  A    between atoms: _306  and  _307
REMARK  125  A    between atoms: _307  and  _308
REMARK  126  A    between atoms: _317  and  _319
REMARK  127  A    between atoms: _319  and  _320
REMARK  128  A    between atoms: _319  and  _322
REMARK  129  A    between atoms: _322  and  _323
REMARK  130  A    between atoms: _328  and  _329
REMARK  131  A    between atoms: _331  and  _333
REMARK  132  A    between atoms: _333  and  _334
REMARK  133  A    between atoms: _333  and  _336
REMARK  134  A    between atoms: _336  and  _337
REMARK  135  A    between atoms: _337  and  _338
REMARK  136  A    between atoms: _338  and  _340
REMARK  137  A    between atoms: _340  and  MG_514
REMARK  138  A    between atoms: _341  and  _343
REMARK  139  A    between atoms: _343  and  _344
REMARK  140  A    between atoms: _343  and  _346
REMARK  141  A    between atoms: _346  and  _347
REMARK  142  A    between atoms: _353  and  _355
REMARK  143  A    between atoms: _355  and  _356
REMARK  144  A    between atoms: _355  and  _358
REMARK  145  A    between atoms: _358  and  _359
REMARK  146  A    between atoms: _364  and  _365
REMARK  147  A    between atoms: _367  and  _369
REMARK  148  A    between atoms: _369  and  _370
REMARK  149  A    between atoms: _373  and  _375
REMARK  150  A    between atoms: _375  and  _376
REMARK  151  A    between atoms: _375  and  _378
REMARK  152  A    between atoms: _381  and  _383
REMARK  153  A    between atoms: _393  and  _396
REMARK  154  A    between atoms: _396  and  _397
REMARK  155  A    between atoms: _404  and  _405
REMARK  156  A    between atoms: _412  and  _414
REMARK  157  A    between atoms: _414  and  _415
REMARK  158  A    between atoms: _414  and  _417
REMARK  159  A    between atoms: _420  and  _422
REMARK  160  A    between atoms: _422  and  _423
REMARK  161  A    between atoms: _422  and  _425
REMARK  162  A    between atoms: _428  and  _429
REMARK  163  A    between atoms: _434  and  _436
REMARK  164  A    between atoms: _436  and  _437
REMARK  165  A    between atoms: _436  and  _439
REMARK  166  A    between atoms: _442  and  _444
REMARK  167  A    between atoms: _444  and  _445
REMARK  168  A    between atoms: _444  and  _447
REMARK  169  A    between atoms: _447  and  _448
REMARK  170  A    between atoms: _451  and  _453
REMARK  171  A    between atoms: _453  and  _454
REMARK  172  A    between atoms: _453  and  _456
REMARK  173  A    between atoms: _456  and  _457
REMARK  174  A    between atoms: _457  and  _458
REMARK  175  A    between atoms: _461  and  _463
REMARK  176  A    between atoms: _463  and  _464
REMARK  177  A    between atoms: _463  and  _466
REMARK  178  A    between atoms: _466  and  _467
REMARK  179  A    between atoms: _470  and  _471
REMARK  180  A    between atoms: _476  and  _478
REMARK  181  A    between atoms: _478  and  _479
REMARK  182  A    between atoms: _478  and  _481
REMARK  183  A    between atoms: _481  and  _482
REMARK  184  A    between atoms: _492  and  _494
REMARK  185  A    between atoms: _494  and  _495
REMARK  186  A    between atoms: _494  and  _497
REMARK  187  A    between atoms: _497  and  _498
REMARK  188  A    between atoms: _498  and  _499
REMARK  189  A    between atoms: _501  and  _503
REMARK  190  A    between atoms: _503  and  _504
REMARK  191  A    between atoms: _503  and  _506
REMARK  192  A    between atoms: _506  and  _507
REMARK  193  A    between atoms: _507  and  _508
REMARK                            x       y       z     vdW  Elec       q    Type
REMARK                         _______ _______ _______ _____ _____    ______ ____
ROOT
ATOM      1  O   HOH     1       7.193  -4.804  11.704  0.00  0.00    +0.000 OA
ENDROOT
TORSDOF 0
